 Abaqus/Standard 3DEXPERIENCE R2018x                  DATE 05-Jun-2019 TIME 14:42:02
 SUMMARY OF JOB INFORMATION:
 STEP  INC ATT SEVERE EQUIL TOTAL  TOTAL      STEP       INC OF       DOF    IF
               DISCON ITERS ITERS  TIME/    TIME/LPF    TIME/LPF    MONITOR RIKS
               ITERS               FREQ
   1     1   1     0     1     1  0.0167     0.0167     0.01667   
   1     2   1     0     1     1  0.0333     0.0333     0.01667   
   1     3   1     0     1     1  0.0583     0.0583     0.02500   
   1     4   1     0     1     1  0.0958     0.0958     0.03750   
   1     5   1     0     1     1  0.152      0.152      0.05625   
   1     6   1     0     1     1  0.236      0.236      0.08438   
   1     7   1     0     1     1  0.336      0.336      0.1000    
   1     8   1     0     1     1  0.436      0.436      0.1000    
   1     9   1     0     1     1  0.536      0.536      0.1000    
   1    10   1     0     1     1  0.636      0.636      0.1000    
   1    11   1     0     1     1  0.736      0.736      0.1000    
   1    12   1     0     1     1  0.836      0.836      0.1000    
   1    13   1     0     1     1  0.936      0.936      0.1000    
   1    14   1     0     1     1  1.00       1.00       0.06354   
   2     1   1     0     1     1  1.02       0.0167     0.01667   
   2     2   1     0     1     1  1.03       0.0333     0.01667   
   2     3   1     0     1     1  1.06       0.0583     0.02500   
   2     4   1     0     1     1  1.10       0.0958     0.03750   
   2     5   1     0     1     1  1.15       0.152      0.05625   
   2     6   1     0     1     1  1.24       0.236      0.08438   
   2     7   1     0     1     1  1.34       0.336      0.1000    
   2     8   1     0     1     1  1.44       0.436      0.1000    
   2     9   1     0     1     1  1.54       0.536      0.1000    
   2    10   1     0     1     1  1.64       0.636      0.1000    
   2    11   1     0     1     1  1.74       0.736      0.1000    
   2    12   1     0     1     1  1.84       0.836      0.1000    
   2    13   1     0     1     1  1.94       0.936      0.1000    
   2    14   1     0     1     1  2.00       1.00       0.06354   
                          
 THE ANALYSIS HAS COMPLETED SUCCESSFULLY
