1

   Abaqus 3DEXPERIENCE R2018x                                  Date 26-Apr-2019   Time 16:36:03
   For use by SIMPSON GUMPERTZ AND HEGER INC under license from Dassault Systemes or its subsidiary.

 ABAQUS Static Analysis Set                                                      
 Contact example                                                                 
 STEP    1     INCREMENT     1     STEP TIME    0.00    


                        S T E P       1     S T A T I C   A N A L Y S I S


          Contact example                                                                 

     AUTOMATIC TIME CONTROL WITH -
          A SUGGESTED INITIAL TIME INCREMENT OF                0.100    
          AND A TOTAL TIME PERIOD OF                            1.00    
          THE MINIMUM TIME INCREMENT ALLOWED IS                1.000E-12
          THE MAXIMUM TIME INCREMENT ALLOWED IS                 1.00    

     LINEAR EQUATION SOLVER TYPE         DIRECT SPARSE

 CONVERGENCE TOLERANCE PARAMETERS FOR FORCE    
     CRITERION FOR RESIDUAL FORCE     FOR A NONLINEAR PROBLEM          5.000E-03
     CRITERION FOR DISP.    CORRECTION IN A NONLINEAR PROBLEM          1.000E-02
     INITIAL VALUE OF TIME AVERAGE FORCE                               1.000E-02
     AVERAGE FORCE     IS TIME AVERAGE FORCE    
     ALTERNATE CRIT. FOR RESIDUAL FORCE     FOR A NONLINEAR PROBLEM    2.000E-02
     CRITERION FOR ZERO FORCE     RELATIVE TO TIME AVRG. FORCE         1.000E-05
     CRITERION FOR RESIDUAL FORCE     WHEN THERE IS ZERO FLUX          1.000E-05
     CRITERION FOR DISP.    CORRECTION WHEN THERE IS ZERO FLUX         1.000E-03
     CRITERION FOR RESIDUAL FORCE     FOR A LINEAR INCREMENT           1.000E-08
     FIELD CONVERSION RATIO                                             1.00    
     CRITERION FOR ZERO FORCE     REL. TO TIME AVRG. MAX. FORCE        1.000E-05
     CRITERION FOR ZERO DISP.    RELATIVE TO CHARACTERISTIC LENGTH     1.000E-08

 CONVERGENCE TOLERANCE PARAMETERS FOR MOMENT   
     CRITERION FOR RESIDUAL MOMENT    FOR A NONLINEAR PROBLEM          5.000E-03
     CRITERION FOR ROTATION CORRECTION IN A NONLINEAR PROBLEM          1.000E-02
     INITIAL VALUE OF TIME AVERAGE MOMENT                              1.000E-02
     AVERAGE MOMENT    IS TIME AVERAGE MOMENT   
     ALTERNATE CRIT. FOR RESIDUAL MOMENT    FOR A NONLINEAR PROBLEM    2.000E-02
     CRITERION FOR ZERO MOMENT    RELATIVE TO TIME AVRG. MOMENT        1.000E-05
     CRITERION FOR RESIDUAL MOMENT    WHEN THERE IS ZERO FLUX          1.000E-05
     CRITERION FOR ROTATION CORRECTION WHEN THERE IS ZERO FLUX         1.000E-03
     CRITERION FOR RESIDUAL MOMENT    FOR A LINEAR INCREMENT           1.000E-08
     FIELD CONVERSION RATIO                                             1.00    
     CRITERION FOR ZERO MOMENT    REL. TO TIME AVRG. MAX. MOMENT       1.000E-05

     VOLUMETRIC STRAIN COMPATIBILITY TOLERANCE FOR HYBRID SOLIDS       1.000E-05
     AXIAL STRAIN COMPATIBILITY TOLERANCE FOR HYBRID BEAMS             1.000E-05
     TRANS. SHEAR STRAIN COMPATIBILITY TOLERANCE FOR HYBRID BEAMS      1.000E-05
     SOFT CONTACT CONSTRAINT COMPATIBILITY TOLERANCE FOR P>P0          5.000E-03
     SOFT CONTACT CONSTRAINT COMPATIBILITY TOLERANCE FOR P=0.0         0.100    
     CONTACT FORCE ERROR TOLERANCE FOR CONVERT SDI=YES                 1.00    
     DISPLACEMENT COMPATIBILITY TOLERANCE FOR DCOUP ELEMENTS           1.000E-05
     ROTATION COMPATIBILITY TOLERANCE FOR DCOUP ELEMENTS               1.000E-05

 EQUILIBRIUM WILL BE CHECKED FOR SEVERE DISCONTINUITY ITERATIONS

 TIME INCREMENTATION CONTROL PARAMETERS:
     FIRST EQUILIBRIUM ITERATION FOR CONSECUTIVE DIVERGENCE CHECK              4
     EQUILIBRIUM ITERATION AT WHICH LOG. CONVERGENCE RATE CHECK BEGINS         8
     EQUILIBRIUM ITERATION AFTER WHICH ALTERNATE RESIDUAL IS USED              9
     MAXIMUM EQUILIBRIUM ITERATIONS ALLOWED                                   16
     EQUILIBRIUM ITERATION COUNT FOR CUT-BACK IN NEXT INCREMENT               10
     MAXIMUM EQUILIB. ITERS IN TWO INCREMENTS FOR TIME INCREMENT INCREASE      4
     MAXIMUM ITERATIONS FOR SEVERE DISCONTINUITIES                            50
     MAXIMUM ATTEMPTS ALLOWED IN AN INCREMENT                                  5
     MAXIMUM DISCON. ITERS IN TWO INCREMENTS FOR TIME INCREMENT INCREASE      50
     MAXIMUM CONTACT AUGMENTATIONS FOR *SURFACE BEHAVIOR,AUGMENTED LAGRANGE   50
     CUT-BACK FACTOR AFTER DIVERGENCE                                 0.2500    
     CUT-BACK FACTOR FOR TOO SLOW CONVERGENCE                         0.5000    
     CUT-BACK FACTOR AFTER TOO MANY EQUILIBRIUM ITERATIONS            0.7500    
     CUT-BACK FACTOR AFTER TOO MANY SEVERE DISCONTINUITY ITERATIONS   0.2500    
     CUT-BACK FACTOR AFTER PROBLEMS IN ELEMENT ASSEMBLY               0.2500    
     INCREASE FACTOR AFTER TWO INCREMENTS THAT CONVERGE QUICKLY        1.500    
     MAX. TIME INCREMENT INCREASE FACTOR ALLOWED                       1.500    
     MAX. TIME INCREMENT INCREASE FACTOR ALLOWED (DYNAMICS)            1.250    
     MAX. TIME INCREMENT INCREASE FACTOR ALLOWED (DIFFUSION)           2.000    
     MINIMUM TIME INCREMENT RATIO FOR EXTRAPOLATION TO OCCUR          0.1000    
     MAX. RATIO OF TIME INCREMENT TO STABILITY LIMIT                   1.000    
     FRACTION OF STABILITY LIMIT FOR NEW TIME INCREMENT               0.9500    
     TIME INCREMENT INCREASE FACTOR BEFORE A TIME POINT                1.000    

 CONTACT CONTROLS APPLIED TO ALL CONTACT PAIRS:
     GLOBAL STABILIZATION CONTROL IS NOT USED
     RELATIVE PENETRATION TOLERANCE FOR AUGMENTED LAGRANGE CONTACT:
          FINITE-SLIDING SURFACE-TO-SURFACE                            5.000E-02
          OTHERWISE                                                    1.000E-03

          PRINT OF INCREMENT NUMBER, TIME, ETC., EVERY    1  INCREMENTS

     THE MAXIMUM NUMBER OF INCREMENTS IN THIS STEP IS                 *******

          UNSYMMETRIC MATRIX STORAGE AND SOLUTION WILL BE USED

     LINEAR EXTRAPOLATION WILL BE USED

     CHARACTERISTIC ELEMENT LENGTH      1.00    

     DETAILS REGARDING ACTUAL SOLUTION WAVEFRONT REQUESTED

     DETAILED OUTPUT OF DIAGNOSTICS TO DATABASE REQUESTED

     PRINT OF INCREMENT NUMBER, TIME, ETC., TO THE MESSAGE FILE EVERY     1  INCREMENTS

     COLLECTING MODEL CONSTRAINT INFORMATION FOR OVERCONSTRAINT CHECKS

     COLLECTING STEP CONSTRAINT INFORMATION FOR OVERCONSTRAINT CHECKS


  INCREMENT     1 STARTS. ATTEMPT NUMBER  1, TIME INCREMENT  0.100    

  NUMBER OF EQUATIONS =        78     NUMBER OF RHS =    1
  NUMBER OF FLOATING PT. OPERATIONS =  2.00E+05

     CHECK POINT   START OF SOLVER    

     CHECK POINT  END OF SOLVER       

       ELAPSED USER TIME (SEC)      =   0.0000    
       ELAPSED SYSTEM TIME (SEC)    =   0.0000    
       ELAPSED TOTAL CPU TIME (SEC) =   0.0000    
       ELAPSED WALLCLOCK TIME (SEC) =          0
 

 ***WARNING: SOLVER PROBLEM. NUMERICAL SINGULARITY WHEN PROCESSING NODE 17 
             D.O.F. 6 RATIO = 5.97150E+12.

                    4 SEVERE DISCONTINUITIES OCCURRED DURING THIS ITERATION.
                    4 POINTS CHANGED FROM OPEN TO CLOSED

               CONVERGENCE CHECKS FOR SEVERE DISCONTINUITY ITERATION     1

   MAX. PENETRATION ERROR 4.22996E-06 AT NODE 16 OF CONTACT PAIR 
   (BOTSURFTABLE,EXTSURFCUBE)
   MAX. CONTACT FORCE ERROR -1.45055E-03 AT NODE 13 OF CONTACT PAIR 
   (BOTSURFTABLE,EXTSURFCUBE)
          THE ESTIMATED CONTACT FORCE ERROR IS OUTSIDE OF CONVERGENCE TOLERANCES.

 AVERAGE FORCE                      4.836E-04   TIME AVG. FORCE       4.836E-04
 LARGEST RESIDUAL FORCE             5.174E-05   AT NODE          5   DOF  1
 LARGEST INCREMENT OF DISP.        -9.672E-03   AT NODE         11   DOF  3
 LARGEST CORRECTION TO DISP.       -9.672E-03   AT NODE         11   DOF  3
          FORCE     EQUILIBRIUM NOT ACHIEVED WITHIN TOLERANCE.

 AVERAGE MOMENT                     5.417E-04   TIME AVG. MOMENT      5.417E-04
 LARGEST RESIDUAL MOMENT           -2.487E-17   AT NODE         14   DOF  5
 LARGEST INCREMENT OF ROTATION      1.751E-02   AT NODE         10   DOF  4
 LARGEST CORRECTION TO ROTATION     1.751E-02   AT NODE         10   DOF  4
          THE MOMENT    EQUILIBRIUM EQUATIONS HAVE CONVERGED

  NUMBER OF EQUATIONS =        78     NUMBER OF RHS =    1
  NUMBER OF FLOATING PT. OPERATIONS =  2.00E+05

     CHECK POINT   START OF SOLVER    

     CHECK POINT  END OF SOLVER       

       ELAPSED USER TIME (SEC)      =   0.0000    
       ELAPSED SYSTEM TIME (SEC)    =   0.0000    
       ELAPSED TOTAL CPU TIME (SEC) =   0.0000    
       ELAPSED WALLCLOCK TIME (SEC) =          0

                    4 SEVERE DISCONTINUITIES OCCURRED DURING THIS ITERATION.
                    4 POINTS CHANGED FROM CLOSED TO OPEN

               CONVERGENCE CHECKS FOR SEVERE DISCONTINUITY ITERATION     2

   MAX. PENETRATION ERROR -56.0455E-06  AT NODE 13 OF CONTACT PAIR 
   (BOTSURFTABLE,EXTSURFCUBE)
   MAX. CONTACT FORCE ERROR -21.4108E-03  AT NODE 13 OF CONTACT PAIR 
   (BOTSURFTABLE,EXTSURFCUBE)
          THE ESTIMATED CONTACT FORCE ERROR IS OUTSIDE OF CONVERGENCE TOLERANCES.

 AVERAGE FORCE                      4.819E-04   TIME AVG. FORCE       4.819E-04
 LARGEST RESIDUAL FORCE            -3.812E-04   AT NODE         13   DOF  3
 LARGEST INCREMENT OF DISP.         5.775E-02   AT NODE         17   DOF  1
 LARGEST CORRECTION TO DISP.        6.205E-02   AT NODE         17   DOF  1
          FORCE     EQUILIBRIUM NOT ACHIEVED WITHIN TOLERANCE.

 AVERAGE MOMENT                     5.401E-04   TIME AVG. MOMENT      5.401E-04
 LARGEST RESIDUAL MOMENT            1.166E-17   AT NODE         17   DOF  4
 LARGEST INCREMENT OF ROTATION     -5.775E-02   AT NODE         13   DOF  6
 LARGEST CORRECTION TO ROTATION    -6.205E-02   AT NODE         13   DOF  6
          THE MOMENT    EQUILIBRIUM EQUATIONS HAVE CONVERGED

  NUMBER OF EQUATIONS =        78     NUMBER OF RHS =    1
  NUMBER OF FLOATING PT. OPERATIONS =  2.00E+05

     CHECK POINT   START OF SOLVER    

     CHECK POINT  END OF SOLVER       

       ELAPSED USER TIME (SEC)      =   0.0000    
       ELAPSED SYSTEM TIME (SEC)    =   0.0000    
       ELAPSED TOTAL CPU TIME (SEC) =   0.0000    
       ELAPSED WALLCLOCK TIME (SEC) =          0
 

 ***WARNING: THE SYSTEM MATRIX HAS 1 NEGATIVE EIGENVALUES.

     NEGATIVE EIGENVALUES MEAN THAT THE SYSTEM MATRIX IS NOT 
     POSITIVE DEFINITE:
     FOR EXAMPLE, A BIFURCATION (BUCKLING) LOAD MAY HAVE BEEN EXCEEDED.

                    4 SEVERE DISCONTINUITIES OCCURRED DURING THIS ITERATION.
                    4 POINTS CHANGED FROM OPEN TO CLOSED

               CONVERGENCE CHECKS FOR SEVERE DISCONTINUITY ITERATION     3

   MAX. PENETRATION ERROR -21.5812E-06  AT NODE 13 OF CONTACT PAIR 
   (BOTSURFTABLE,EXTSURFCUBE)
   MAX. CONTACT FORCE ERROR -8.21715E-03 AT NODE 13 OF CONTACT PAIR 
   (BOTSURFTABLE,EXTSURFCUBE)
          THE ESTIMATED CONTACT FORCE ERROR IS OUTSIDE OF CONVERGENCE TOLERANCES.

 AVERAGE FORCE                      4.840E-04   TIME AVG. FORCE       4.840E-04
 LARGEST RESIDUAL FORCE            -1.258E-04   AT NODE         13   DOF  3
 LARGEST INCREMENT OF DISP.        -9.605E-03   AT NODE         17   DOF  3
 LARGEST CORRECTION TO DISP.        5.884E-02   AT NODE         14   DOF  2
          FORCE     EQUILIBRIUM NOT ACHIEVED WITHIN TOLERANCE.

 AVERAGE MOMENT                     5.388E-04   TIME AVG. MOMENT      5.388E-04
 LARGEST RESIDUAL MOMENT           -1.921E-17   AT NODE         16   DOF  6
 LARGEST INCREMENT OF ROTATION      1.741E-02   AT NODE         14   DOF  5
 LARGEST CORRECTION TO ROTATION     5.884E-02   AT NODE         13   DOF  6
          THE MOMENT    EQUILIBRIUM EQUATIONS HAVE CONVERGED

  NUMBER OF EQUATIONS =        78     NUMBER OF RHS =    1
  NUMBER OF FLOATING PT. OPERATIONS =  2.00E+05

     CHECK POINT   START OF SOLVER    

     CHECK POINT  END OF SOLVER       

       ELAPSED USER TIME (SEC)      =   0.0000    
       ELAPSED SYSTEM TIME (SEC)    =   0.0000    
       ELAPSED TOTAL CPU TIME (SEC) =   0.0000    
       ELAPSED WALLCLOCK TIME (SEC) =          0

                    4 SEVERE DISCONTINUITIES OCCURRED DURING THIS ITERATION.
                    4 POINTS CHANGED FROM CLOSED TO OPEN

               CONVERGENCE CHECKS FOR SEVERE DISCONTINUITY ITERATION     4

   MAX. PENETRATION ERROR -2.31555E-06 AT NODE 13 OF CONTACT PAIR 
   (BOTSURFTABLE,EXTSURFCUBE)
   MAX. CONTACT FORCE ERROR -881.712E-06   AT NODE 13 OF CONTACT PAIR 
   (BOTSURFTABLE,EXTSURFCUBE)
          THE ESTIMATED CONTACT FORCE ERROR IS OUTSIDE OF CONVERGENCE TOLERANCES.

 AVERAGE FORCE                      4.855E-04   TIME AVG. FORCE       4.855E-04
 LARGEST RESIDUAL FORCE            -7.454E-06   AT NODE         13   DOF  3
 LARGEST INCREMENT OF DISP.        -9.681E-03   AT NODE         17   DOF  3
 LARGEST CORRECTION TO DISP.        8.957E-03   AT NODE         16   DOF  1
          FORCE     EQUILIBRIUM NOT ACHIEVED WITHIN TOLERANCE.

 AVERAGE MOMENT                     5.421E-04   TIME AVG. MOMENT      5.421E-04
 LARGEST RESIDUAL MOMENT            1.090E-17   AT NODE         10   DOF  4
 LARGEST INCREMENT OF ROTATION      1.752E-02   AT NODE         10   DOF  4
 LARGEST CORRECTION TO ROTATION    -8.957E-03   AT NODE         13   DOF  6
          THE MOMENT    EQUILIBRIUM EQUATIONS HAVE CONVERGED

  NUMBER OF EQUATIONS =        78     NUMBER OF RHS =    1
  NUMBER OF FLOATING PT. OPERATIONS =  2.00E+05

     CHECK POINT   START OF SOLVER    

     CHECK POINT  END OF SOLVER       

       ELAPSED USER TIME (SEC)      =   0.0000    
       ELAPSED SYSTEM TIME (SEC)    =   0.0000    
       ELAPSED TOTAL CPU TIME (SEC) =   0.0000    
       ELAPSED WALLCLOCK TIME (SEC) =          0
 

 ***WARNING: THE SYSTEM MATRIX HAS 1 NEGATIVE EIGENVALUES.
             EXPLANATIONS ARE SUGGESTED AFTER THE FIRST OCCURRENCE OF THIS MESSAGE.

                    4 SEVERE DISCONTINUITIES OCCURRED DURING THIS ITERATION.
                    4 POINTS CHANGED FROM OPEN TO CLOSED

               CONVERGENCE CHECKS FOR SEVERE DISCONTINUITY ITERATION     5

   MAX. PENETRATION ERROR -1.23066E-06 AT NODE 13 OF CONTACT PAIR 
   (BOTSURFTABLE,EXTSURFCUBE)
   MAX. CONTACT FORCE ERROR -468.582E-06   AT NODE 13 OF CONTACT PAIR 
   (BOTSURFTABLE,EXTSURFCUBE)
          THE CONTACT CONSTRAINT ERRORS ARE WITHIN THE TOLERANCES.

 AVERAGE FORCE                      4.854E-04   TIME AVG. FORCE       4.854E-04
 LARGEST RESIDUAL FORCE            -1.109E-05   AT NODE         13   DOF  3
 LARGEST INCREMENT OF DISP.        -9.671E-03   AT NODE         17   DOF  3
 LARGEST CORRECTION TO DISP.       -7.795E-03   AT NODE         16   DOF  1
          FORCE     EQUILIBRIUM NOT ACHIEVED WITHIN TOLERANCE.

 AVERAGE MOMENT                     5.415E-04   TIME AVG. MOMENT      5.415E-04
 LARGEST RESIDUAL MOMENT           -1.366E-17   AT NODE         13   DOF  5
 LARGEST INCREMENT OF ROTATION     -1.750E-02   AT NODE         16   DOF  4
 LARGEST CORRECTION TO ROTATION     7.795E-03   AT NODE         13   DOF  6
          THE MOMENT    EQUILIBRIUM EQUATIONS HAVE CONVERGED

  NUMBER OF EQUATIONS =        78     NUMBER OF RHS =    1
  NUMBER OF FLOATING PT. OPERATIONS =  2.00E+05

     CHECK POINT   START OF SOLVER    

     CHECK POINT  END OF SOLVER       

       ELAPSED USER TIME (SEC)      =   0.0000    
       ELAPSED SYSTEM TIME (SEC)    =   0.0000    
       ELAPSED TOTAL CPU TIME (SEC) =   0.0000    
       ELAPSED WALLCLOCK TIME (SEC) =          0
 

 ***WARNING: THE SYSTEM MATRIX HAS 1 NEGATIVE EIGENVALUES.
             EXPLANATIONS ARE SUGGESTED AFTER THE FIRST OCCURRENCE OF THIS MESSAGE.

                    4 SEVERE DISCONTINUITIES OCCURRED DURING THIS ITERATION.
                    4 POINTS CHANGED FROM STICKING TO SLIPPING

               CONVERGENCE CHECKS FOR SEVERE DISCONTINUITY ITERATION     6

   MAX. PENETRATION ERROR -2.54957E-06 AT NODE 13 OF CONTACT PAIR 
   (BOTSURFTABLE,EXTSURFCUBE)
   MAX. CONTACT FORCE ERROR -970.853E-06   AT NODE 13 OF CONTACT PAIR 
   (BOTSURFTABLE,EXTSURFCUBE)
          THE ESTIMATED CONTACT FORCE ERROR IS OUTSIDE OF CONVERGENCE TOLERANCES.

 AVERAGE FORCE                      5.685E-04   TIME AVG. FORCE       5.685E-04
 LARGEST RESIDUAL FORCE             4.621E-03   AT NODE         13   DOF  3
 LARGEST INCREMENT OF DISP.         9.874E-03   AT NODE         15   DOF  2
 LARGEST CORRECTION TO DISP.        9.804E-03   AT NODE         15   DOF  2
          FORCE     EQUILIBRIUM NOT ACHIEVED WITHIN TOLERANCE.

 AVERAGE MOMENT                     5.304E-04   TIME AVG. MOMENT      5.304E-04
 LARGEST RESIDUAL MOMENT            9.689E-18   AT NODE         12   DOF  5
 LARGEST INCREMENT OF ROTATION      1.705E-02   AT NODE         14   DOF  5
 LARGEST CORRECTION TO ROTATION    -9.804E-03   AT NODE         13   DOF  6
          THE MOMENT    EQUILIBRIUM EQUATIONS HAVE CONVERGED
 

 ***NOTE: THE SOLUTION APPEARS TO BE DIVERGING. CONVERGENCE IS JUDGED UNLIKELY.


  INCREMENT     1 STARTS. ATTEMPT NUMBER  2, TIME INCREMENT  2.500E-02

  NUMBER OF EQUATIONS =        78     NUMBER OF RHS =    1
  NUMBER OF FLOATING PT. OPERATIONS =  2.00E+05

     CHECK POINT   START OF SOLVER    

     CHECK POINT  END OF SOLVER       

       ELAPSED USER TIME (SEC)      =   0.0000    
       ELAPSED SYSTEM TIME (SEC)    =   0.0000    
       ELAPSED TOTAL CPU TIME (SEC) =   0.0000    
       ELAPSED WALLCLOCK TIME (SEC) =          0
 

 ***WARNING: SOLVER PROBLEM. NUMERICAL SINGULARITY WHEN PROCESSING NODE 17 
             D.O.F. 6 RATIO = 1.80874E+12.

                    4 SEVERE DISCONTINUITIES OCCURRED DURING THIS ITERATION.
                    4 POINTS CHANGED FROM OPEN TO CLOSED

               CONVERGENCE CHECKS FOR SEVERE DISCONTINUITY ITERATION     1

   MAX. PENETRATION ERROR -199.780E-09   AT NODE 13 OF CONTACT PAIR 
   (BOTSURFTABLE,EXTSURFCUBE)
   MAX. CONTACT FORCE ERROR -76.0625E-06  AT NODE 13 OF CONTACT PAIR 
   (BOTSURFTABLE,EXTSURFCUBE)
          THE CONTACT CONSTRAINT ERRORS ARE WITHIN THE TOLERANCES.

 AVERAGE FORCE                      1.207E-04   TIME AVG. FORCE       1.207E-04
 LARGEST RESIDUAL FORCE            -3.235E-06   AT NODE          7   DOF  1
 LARGEST INCREMENT OF DISP.        -2.418E-03   AT NODE         15   DOF  3
 LARGEST CORRECTION TO DISP.       -2.418E-03   AT NODE         15   DOF  3
          FORCE     EQUILIBRIUM NOT ACHIEVED WITHIN TOLERANCE.

 AVERAGE MOMENT                     1.354E-04   TIME AVG. MOMENT      1.354E-04
 LARGEST RESIDUAL MOMENT            9.865E-18   AT NODE         14   DOF  5
 LARGEST INCREMENT OF ROTATION     -4.377E-03   AT NODE         16   DOF  4
 LARGEST CORRECTION TO ROTATION    -4.377E-03   AT NODE         16   DOF  4
          THE MOMENT    EQUILIBRIUM EQUATIONS HAVE CONVERGED

  NUMBER OF EQUATIONS =        78     NUMBER OF RHS =    1
  NUMBER OF FLOATING PT. OPERATIONS =  2.00E+05

     CHECK POINT   START OF SOLVER    

     CHECK POINT  END OF SOLVER       

       ELAPSED USER TIME (SEC)      =   0.0000    
       ELAPSED SYSTEM TIME (SEC)    =   0.0000    
       ELAPSED TOTAL CPU TIME (SEC) =   0.0000    
       ELAPSED WALLCLOCK TIME (SEC) =          0
 

 ***WARNING: THE SYSTEM MATRIX HAS 1 NEGATIVE EIGENVALUES.
             EXPLANATIONS ARE SUGGESTED AFTER THE FIRST OCCURRENCE OF THIS MESSAGE.

               CONVERGENCE CHECKS FOR EQUILIBRIUM ITERATION     1

   MAX. PENETRATION ERROR -62.7916E-09  AT NODE 13 OF CONTACT PAIR 
   (BOTSURFTABLE,EXTSURFCUBE)
   MAX. CONTACT FORCE ERROR -23.9069E-06  AT NODE 13 OF CONTACT PAIR 
   (BOTSURFTABLE,EXTSURFCUBE)
          THE CONTACT CONSTRAINTS HAVE CONVERGED.

 AVERAGE FORCE                      1.226E-04   TIME AVG. FORCE       1.226E-04
 LARGEST RESIDUAL FORCE             1.233E-04   AT NODE         13   DOF  3
 LARGEST INCREMENT OF DISP.        -2.412E-03   AT NODE         11   DOF  3
 LARGEST CORRECTION TO DISP.       -2.096E-03   AT NODE          9   DOF  2
          FORCE     EQUILIBRIUM NOT ACHIEVED WITHIN TOLERANCE.

 AVERAGE MOMENT                     1.350E-04   TIME AVG. MOMENT      1.350E-04
 LARGEST RESIDUAL MOMENT            2.873E-18   AT NODE         14   DOF  4
 LARGEST INCREMENT OF ROTATION      4.361E-03   AT NODE         14   DOF  5
 LARGEST CORRECTION TO ROTATION     2.096E-03   AT NODE         13   DOF  6
          THE MOMENT    EQUILIBRIUM RESPONSE WAS LINEAR IN THIS INCREMENT

  NUMBER OF EQUATIONS =        78     NUMBER OF RHS =    1
  NUMBER OF FLOATING PT. OPERATIONS =  2.00E+05

     CHECK POINT   START OF SOLVER    

     CHECK POINT  END OF SOLVER       

       ELAPSED USER TIME (SEC)      =   0.0000    
       ELAPSED SYSTEM TIME (SEC)    =   0.0000    
       ELAPSED TOTAL CPU TIME (SEC) =   0.0000    
       ELAPSED WALLCLOCK TIME (SEC) =          0

               CONVERGENCE CHECKS FOR EQUILIBRIUM ITERATION     2

   MAX. PENETRATION ERROR -8.26793E-09 AT NODE 13 OF CONTACT PAIR 
   (BOTSURFTABLE,EXTSURFCUBE)
   MAX. CONTACT FORCE ERROR -3.14787E-06 AT NODE 13 OF CONTACT PAIR 
   (BOTSURFTABLE,EXTSURFCUBE)
          THE CONTACT CONSTRAINTS HAVE CONVERGED.

 AVERAGE FORCE                      1.208E-04   TIME AVG. FORCE       1.208E-04
 LARGEST RESIDUAL FORCE            -1.835E-06   AT NODE          7   DOF  1
 LARGEST INCREMENT OF DISP.        -2.382E-03   AT NODE         15   DOF  3
 LARGEST CORRECTION TO DISP.        1.003E-03   AT NODE         17   DOF  1
          FORCE     EQUILIBRIUM NOT ACHIEVED WITHIN TOLERANCE.

 AVERAGE MOMENT                     1.333E-04   TIME AVG. MOMENT      1.333E-04
 LARGEST RESIDUAL MOMENT           -4.120E-18   AT NODE         14   DOF  4
 LARGEST INCREMENT OF ROTATION      4.301E-03   AT NODE         14   DOF  5
 LARGEST CORRECTION TO ROTATION    -1.003E-03   AT NODE         13   DOF  6
          THE MOMENT    EQUILIBRIUM EQUATIONS HAVE CONVERGED

  NUMBER OF EQUATIONS =        78     NUMBER OF RHS =    1
  NUMBER OF FLOATING PT. OPERATIONS =  2.00E+05

     CHECK POINT   START OF SOLVER    

     CHECK POINT  END OF SOLVER       

       ELAPSED USER TIME (SEC)      =   0.0000    
       ELAPSED SYSTEM TIME (SEC)    =   0.0000    
       ELAPSED TOTAL CPU TIME (SEC) =   0.0000    
       ELAPSED WALLCLOCK TIME (SEC) =          0

               CONVERGENCE CHECKS FOR EQUILIBRIUM ITERATION     3

   MAX. PENETRATION ERROR -2.48529E-09 AT NODE 13 OF CONTACT PAIR 
   (BOTSURFTABLE,EXTSURFCUBE)
   MAX. CONTACT FORCE ERROR -946.229E-09   AT NODE 13 OF CONTACT PAIR 
   (BOTSURFTABLE,EXTSURFCUBE)
          THE CONTACT CONSTRAINTS HAVE CONVERGED.

 AVERAGE FORCE                      1.209E-04   TIME AVG. FORCE       1.209E-04
 LARGEST RESIDUAL FORCE             4.769E-06   AT NODE         13   DOF  3
 LARGEST INCREMENT OF DISP.        -2.402E-03   AT NODE         11   DOF  3
 LARGEST CORRECTION TO DISP.       -4.911E-04   AT NODE         17   DOF  2
          FORCE     EQUILIBRIUM NOT ACHIEVED WITHIN TOLERANCE.

 AVERAGE MOMENT                     1.344E-04   TIME AVG. MOMENT      1.344E-04
 LARGEST RESIDUAL MOMENT           -3.686E-18   AT NODE         13   DOF  5
 LARGEST INCREMENT OF ROTATION      4.341E-03   AT NODE         14   DOF  5
 LARGEST CORRECTION TO ROTATION    -4.911E-04   AT NODE         13   DOF  6
          THE MOMENT    EQUILIBRIUM EQUATIONS HAVE CONVERGED

  NUMBER OF EQUATIONS =        78     NUMBER OF RHS =    1
  NUMBER OF FLOATING PT. OPERATIONS =  2.00E+05

     CHECK POINT   START OF SOLVER    

     CHECK POINT  END OF SOLVER       

       ELAPSED USER TIME (SEC)      =   0.0000    
       ELAPSED SYSTEM TIME (SEC)    =  0.10000    
       ELAPSED TOTAL CPU TIME (SEC) =  0.10000    
       ELAPSED WALLCLOCK TIME (SEC) =          0

               CONVERGENCE CHECKS FOR EQUILIBRIUM ITERATION     4

   MAX. PENETRATION ERROR -1.56680E-09 AT NODE 13 OF CONTACT PAIR 
   (BOTSURFTABLE,EXTSURFCUBE)
   MAX. CONTACT FORCE ERROR -596.531E-09   AT NODE 13 OF CONTACT PAIR 
   (BOTSURFTABLE,EXTSURFCUBE)
          THE CONTACT CONSTRAINTS HAVE CONVERGED.

 AVERAGE FORCE                      1.208E-04   TIME AVG. FORCE       1.208E-04
 LARGEST RESIDUAL FORCE             2.607E-06   AT NODE         13   DOF  3
 LARGEST INCREMENT OF DISP.        -2.409E-03   AT NODE         11   DOF  3
 LARGEST CORRECTION TO DISP.       -2.897E-04   AT NODE         11   DOF  1
          FORCE     EQUILIBRIUM NOT ACHIEVED WITHIN TOLERANCE.

 AVERAGE MOMENT                     1.349E-04   TIME AVG. MOMENT      1.349E-04
 LARGEST RESIDUAL MOMENT            4.879E-18   AT NODE         13   DOF  5
 LARGEST INCREMENT OF ROTATION      4.356E-03   AT NODE         14   DOF  5
 LARGEST CORRECTION TO ROTATION    -2.897E-04   AT NODE         11   DOF  6
          THE MOMENT    EQUILIBRIUM EQUATIONS HAVE CONVERGED

  NUMBER OF EQUATIONS =        78     NUMBER OF RHS =    1
  NUMBER OF FLOATING PT. OPERATIONS =  2.00E+05

     CHECK POINT   START OF SOLVER    

     CHECK POINT  END OF SOLVER       

       ELAPSED USER TIME (SEC)      =   0.0000    
       ELAPSED SYSTEM TIME (SEC)    =   0.0000    
       ELAPSED TOTAL CPU TIME (SEC) =   0.0000    
       ELAPSED WALLCLOCK TIME (SEC) =          0

               CONVERGENCE CHECKS FOR EQUILIBRIUM ITERATION     5

   MAX. PENETRATION ERROR -970.665E-12   AT NODE 13 OF CONTACT PAIR 
   (BOTSURFTABLE,EXTSURFCUBE)
   MAX. CONTACT FORCE ERROR -369.563E-09   AT NODE 13 OF CONTACT PAIR 
   (BOTSURFTABLE,EXTSURFCUBE)
          THE CONTACT CONSTRAINTS HAVE CONVERGED.

 AVERAGE FORCE                      1.208E-04   TIME AVG. FORCE       1.208E-04
 LARGEST RESIDUAL FORCE             1.716E-06   AT NODE         13   DOF  3
 LARGEST INCREMENT OF DISP.        -2.413E-03   AT NODE         11   DOF  3
 LARGEST CORRECTION TO DISP.        1.755E-04   AT NODE         15   DOF  1
          FORCE     EQUILIBRIUM NOT ACHIEVED WITHIN TOLERANCE.

 AVERAGE MOMENT                     1.351E-04   TIME AVG. MOMENT      1.351E-04
 LARGEST RESIDUAL MOMENT            2.711E-18   AT NODE         13   DOF  4
 LARGEST INCREMENT OF ROTATION      4.363E-03   AT NODE         14   DOF  5
 LARGEST CORRECTION TO ROTATION    -1.755E-04   AT NODE         11   DOF  6
          THE MOMENT    EQUILIBRIUM EQUATIONS HAVE CONVERGED

  NUMBER OF EQUATIONS =        78     NUMBER OF RHS =    1
  NUMBER OF FLOATING PT. OPERATIONS =  2.00E+05

     CHECK POINT   START OF SOLVER    

     CHECK POINT  END OF SOLVER       

       ELAPSED USER TIME (SEC)      =   0.0000    
       ELAPSED SYSTEM TIME (SEC)    =   0.0000    
       ELAPSED TOTAL CPU TIME (SEC) =   0.0000    
       ELAPSED WALLCLOCK TIME (SEC) =          0

               CONVERGENCE CHECKS FOR EQUILIBRIUM ITERATION     6

   MAX. PENETRATION ERROR 267.798E-12   AT NODE 10 OF CONTACT PAIR 
   (BOTSURFTABLE,EXTSURFCUBE)
   MAX. CONTACT FORCE ERROR 16.9932E-09  AT NODE 10 OF CONTACT PAIR 
   (BOTSURFTABLE,EXTSURFCUBE)
          THE CONTACT CONSTRAINTS HAVE CONVERGED.

 AVERAGE FORCE                      1.208E-04   TIME AVG. FORCE       1.208E-04
 LARGEST RESIDUAL FORCE             7.549E-07   AT NODE         13   DOF  3
 LARGEST INCREMENT OF DISP.        -2.413E-03   AT NODE         11   DOF  3
 LARGEST CORRECTION TO DISP.       -1.140E-04   AT NODE         11   DOF  1
          FORCE     EQUILIBRIUM NOT ACHIEVED WITHIN TOLERANCE.

 AVERAGE MOMENT                     1.351E-04   TIME AVG. MOMENT      1.351E-04
 LARGEST RESIDUAL MOMENT           -2.290E-18   AT NODE         17   DOF  5
 LARGEST INCREMENT OF ROTATION      4.364E-03   AT NODE         14   DOF  5
 LARGEST CORRECTION TO ROTATION    -1.140E-04   AT NODE         13   DOF  6
          THE MOMENT    EQUILIBRIUM EQUATIONS HAVE CONVERGED

  NUMBER OF EQUATIONS =        78     NUMBER OF RHS =    1
  NUMBER OF FLOATING PT. OPERATIONS =  2.00E+05

     CHECK POINT   START OF SOLVER    

     CHECK POINT  END OF SOLVER       

       ELAPSED USER TIME (SEC)      =   0.0000    
       ELAPSED SYSTEM TIME (SEC)    =   0.0000    
       ELAPSED TOTAL CPU TIME (SEC) =   0.0000    
       ELAPSED WALLCLOCK TIME (SEC) =          0

               CONVERGENCE CHECKS FOR EQUILIBRIUM ITERATION     7

   MAX. PENETRATION ERROR 53.8221E-12  AT NODE 16 OF CONTACT PAIR 
   (BOTSURFTABLE,EXTSURFCUBE)
   MAX. CONTACT FORCE ERROR 3.41529E-09 AT NODE 16 OF CONTACT PAIR 
   (BOTSURFTABLE,EXTSURFCUBE)
          THE CONTACT CONSTRAINTS HAVE CONVERGED.

 AVERAGE FORCE                      1.208E-04   TIME AVG. FORCE       1.208E-04
 LARGEST RESIDUAL FORCE             9.943E-08   AT NODE         13   DOF  3
 LARGEST INCREMENT OF DISP.        -2.413E-03   AT NODE         17   DOF  3
 LARGEST CORRECTION TO DISP.        4.859E-05   AT NODE          9   DOF  2
 ESTIMATE OF DISP.    CORRECTION    6.400E-06
 FORCE     EQUILIB. ACCEPTED BASED ON SMALL RESIDUAL AND ESTIMATED CORRECTION

 AVERAGE MOMENT                     1.351E-04   TIME AVG. MOMENT      1.351E-04
 LARGEST RESIDUAL MOMENT           -2.114E-18   AT NODE         13   DOF  4
 LARGEST INCREMENT OF ROTATION      4.363E-03   AT NODE         14   DOF  5
 LARGEST CORRECTION TO ROTATION    -4.859E-05   AT NODE         13   DOF  6
          THE MOMENT    EQUILIBRIUM EQUATIONS HAVE CONVERGED

 ITERATION SUMMARY FOR THE INCREMENT:   8 TOTAL ITERATIONS, OF WHICH
   1 ARE SEVERE DISCONTINUITY ITERATIONS AND  7 ARE EQUILIBRIUM ITERATIONS.

 TIME INCREMENT COMPLETED  2.500E-02,  FRACTION OF STEP COMPLETED  2.500E-02
 STEP TIME COMPLETED       2.500E-02,  TOTAL TIME COMPLETED        2.500E-02


  INCREMENT     2 STARTS. ATTEMPT NUMBER  1, TIME INCREMENT  2.500E-02

  NUMBER OF EQUATIONS =        78     NUMBER OF RHS =    1
  NUMBER OF FLOATING PT. OPERATIONS =  2.00E+05

     CHECK POINT   START OF SOLVER    

     CHECK POINT  END OF SOLVER       

       ELAPSED USER TIME (SEC)      =   0.0000    
       ELAPSED SYSTEM TIME (SEC)    =   0.0000    
       ELAPSED TOTAL CPU TIME (SEC) =   0.0000    
       ELAPSED WALLCLOCK TIME (SEC) =          0

               CONVERGENCE CHECKS FOR EQUILIBRIUM ITERATION     1

   MAX. PENETRATION ERROR -21.8583E-12  AT NODE 13 OF CONTACT PAIR 
   (BOTSURFTABLE,EXTSURFCUBE)
   MAX. CONTACT FORCE ERROR -8.32226E-09 AT NODE 13 OF CONTACT PAIR 
   (BOTSURFTABLE,EXTSURFCUBE)
          THE CONTACT CONSTRAINTS HAVE CONVERGED.

 AVERAGE FORCE                      6.541E-04   TIME AVG. FORCE       3.875E-04
 LARGEST RESIDUAL FORCE            -9.752E-07   AT NODE         13   DOF  3
 LARGEST INCREMENT OF DISP.        -2.394E-03   AT NODE          9   DOF  3
 LARGEST CORRECTION TO DISP.        1.919E-05   AT NODE         17   DOF  3
          THE FORCE     EQUILIBRIUM EQUATIONS HAVE CONVERGED

 AVERAGE MOMENT                     5.379E-04   TIME AVG. MOMENT      3.365E-04
 LARGEST RESIDUAL MOMENT           -5.599E-18   AT NODE         12   DOF  5
 LARGEST INCREMENT OF ROTATION     -4.314E-03   AT NODE         12   DOF  5
 LARGEST CORRECTION TO ROTATION     4.916E-05   AT NODE         16   DOF  4
          THE MOMENT    EQUILIBRIUM RESPONSE WAS LINEAR IN THIS INCREMENT

 ITERATION SUMMARY FOR THE INCREMENT:   1 TOTAL ITERATIONS, OF WHICH
   0 ARE SEVERE DISCONTINUITY ITERATIONS AND  1 ARE EQUILIBRIUM ITERATIONS.

 TIME INCREMENT COMPLETED  2.500E-02,  FRACTION OF STEP COMPLETED  5.000E-02
 STEP TIME COMPLETED       5.000E-02,  TOTAL TIME COMPLETED        5.000E-02


  INCREMENT     3 STARTS. ATTEMPT NUMBER  1, TIME INCREMENT  2.500E-02

  NUMBER OF EQUATIONS =        78     NUMBER OF RHS =    1
  NUMBER OF FLOATING PT. OPERATIONS =  2.00E+05

     CHECK POINT   START OF SOLVER    

     CHECK POINT  END OF SOLVER       

       ELAPSED USER TIME (SEC)      =   0.0000    
       ELAPSED SYSTEM TIME (SEC)    =   0.0000    
       ELAPSED TOTAL CPU TIME (SEC) =   0.0000    
       ELAPSED WALLCLOCK TIME (SEC) =          0

               CONVERGENCE CHECKS FOR EQUILIBRIUM ITERATION     1

   MAX. PENETRATION ERROR 40.9482E-12  AT NODE 14 OF CONTACT PAIR 
   (BOTSURFTABLE,EXTSURFCUBE)
   MAX. CONTACT FORCE ERROR -14.3211E-09  AT NODE 13 OF CONTACT PAIR 
   (BOTSURFTABLE,EXTSURFCUBE)
          THE CONTACT CONSTRAINTS HAVE CONVERGED.

 AVERAGE FORCE                      8.905E-04   TIME AVG. FORCE       5.551E-04
 LARGEST RESIDUAL FORCE            -1.995E-06   AT NODE         13   DOF  3
 LARGEST INCREMENT OF DISP.        -2.369E-03   AT NODE         17   DOF  3
 LARGEST CORRECTION TO DISP.        2.506E-05   AT NODE          9   DOF  3
 ESTIMATE OF DISP.    CORRECTION   -5.992E-07
 FORCE     EQUILIB. ACCEPTED BASED ON SMALL RESIDUAL AND ESTIMATED CORRECTION

 AVERAGE MOMENT                     8.025E-04   TIME AVG. MOMENT      4.918E-04
 LARGEST RESIDUAL MOMENT            9.541E-18   AT NODE         13   DOF  5
 LARGEST INCREMENT OF ROTATION      4.250E-03   AT NODE         14   DOF  5
 LARGEST CORRECTION TO ROTATION    -6.432E-05   AT NODE         10   DOF  4
          THE MOMENT    EQUILIBRIUM RESPONSE WAS LINEAR IN THIS INCREMENT
          TIME INCREMENT MAY NOW INCREASE TO    3.750E-02

 ITERATION SUMMARY FOR THE INCREMENT:   1 TOTAL ITERATIONS, OF WHICH
   0 ARE SEVERE DISCONTINUITY ITERATIONS AND  1 ARE EQUILIBRIUM ITERATIONS.

 TIME INCREMENT COMPLETED  2.500E-02,  FRACTION OF STEP COMPLETED  7.500E-02
 STEP TIME COMPLETED       7.500E-02,  TOTAL TIME COMPLETED        7.500E-02


  INCREMENT     4 STARTS. ATTEMPT NUMBER  1, TIME INCREMENT  3.750E-02

  NUMBER OF EQUATIONS =        78     NUMBER OF RHS =    1
  NUMBER OF FLOATING PT. OPERATIONS =  2.00E+05

     CHECK POINT   START OF SOLVER    

     CHECK POINT  END OF SOLVER       

       ELAPSED USER TIME (SEC)      =   0.0000    
       ELAPSED SYSTEM TIME (SEC)    =   0.0000    
       ELAPSED TOTAL CPU TIME (SEC) =   0.0000    
       ELAPSED WALLCLOCK TIME (SEC) =          0

               CONVERGENCE CHECKS FOR EQUILIBRIUM ITERATION     1

   MAX. PENETRATION ERROR -176.887E-12   AT NODE 13 OF CONTACT PAIR 
   (BOTSURFTABLE,EXTSURFCUBE)
   MAX. CONTACT FORCE ERROR -67.3515E-09  AT NODE 13 OF CONTACT PAIR 
   (BOTSURFTABLE,EXTSURFCUBE)
          THE CONTACT CONSTRAINTS HAVE CONVERGED.

 AVERAGE FORCE                      1.260E-03   TIME AVG. FORCE       7.313E-04
 LARGEST RESIDUAL FORCE            -7.249E-06   AT NODE         13   DOF  3
 LARGEST INCREMENT OF DISP.        -3.499E-03   AT NODE         11   DOF  3
 LARGEST CORRECTION TO DISP.        5.389E-05   AT NODE         17   DOF  3
          FORCE     EQUILIBRIUM NOT ACHIEVED WITHIN TOLERANCE.

 AVERAGE MOMENT                     1.193E-03   TIME AVG. MOMENT      6.670E-04
 LARGEST RESIDUAL MOMENT           -1.908E-17   AT NODE         13   DOF  4
 LARGEST INCREMENT OF ROTATION     -6.236E-03   AT NODE         12   DOF  5
 LARGEST CORRECTION TO ROTATION     1.389E-04   AT NODE         16   DOF  4
          THE MOMENT    EQUILIBRIUM RESPONSE WAS LINEAR IN THIS INCREMENT

  NUMBER OF EQUATIONS =        78     NUMBER OF RHS =    1
  NUMBER OF FLOATING PT. OPERATIONS =  2.00E+05

     CHECK POINT   START OF SOLVER    

     CHECK POINT  END OF SOLVER       

       ELAPSED USER TIME (SEC)      =   0.0000    
       ELAPSED SYSTEM TIME (SEC)    =   0.0000    
       ELAPSED TOTAL CPU TIME (SEC) =   0.0000    
       ELAPSED WALLCLOCK TIME (SEC) =          0

               CONVERGENCE CHECKS FOR EQUILIBRIUM ITERATION     2

   MAX. PENETRATION ERROR -5.42434E-12 AT NODE 12 OF CONTACT PAIR 
   (BOTSURFTABLE,EXTSURFCUBE)
   MAX. CONTACT FORCE ERROR -344.225E-12   AT NODE 12 OF CONTACT PAIR 
   (BOTSURFTABLE,EXTSURFCUBE)
          THE CONTACT CONSTRAINTS HAVE CONVERGED.

 AVERAGE FORCE                      1.260E-03   TIME AVG. FORCE       7.313E-04
 LARGEST RESIDUAL FORCE             2.486E-07   AT NODE         13   DOF  3
 LARGEST INCREMENT OF DISP.        -3.501E-03   AT NODE         15   DOF  3
 LARGEST CORRECTION TO DISP.       -1.971E-06   AT NODE         15   DOF  3
          THE FORCE     EQUILIBRIUM EQUATIONS HAVE CONVERGED

 AVERAGE MOMENT                     1.193E-03   TIME AVG. MOMENT      6.670E-04
 LARGEST RESIDUAL MOMENT            2.602E-17   AT NODE         13   DOF  5
 LARGEST INCREMENT OF ROTATION      6.241E-03   AT NODE         14   DOF  5
 LARGEST CORRECTION TO ROTATION    -5.063E-06   AT NODE         16   DOF  4
          THE MOMENT    EQUILIBRIUM EQUATIONS HAVE CONVERGED
          TIME INCREMENT MAY NOW INCREASE TO    5.625E-02

 ITERATION SUMMARY FOR THE INCREMENT:   2 TOTAL ITERATIONS, OF WHICH
   0 ARE SEVERE DISCONTINUITY ITERATIONS AND  2 ARE EQUILIBRIUM ITERATIONS.

 TIME INCREMENT COMPLETED  3.750E-02,  FRACTION OF STEP COMPLETED  0.113    
 STEP TIME COMPLETED       0.113    ,  TOTAL TIME COMPLETED        0.113    


  INCREMENT     5 STARTS. ATTEMPT NUMBER  1, TIME INCREMENT  5.625E-02

  NUMBER OF EQUATIONS =        78     NUMBER OF RHS =    1
  NUMBER OF FLOATING PT. OPERATIONS =  2.00E+05

     CHECK POINT   START OF SOLVER    

     CHECK POINT  END OF SOLVER       

       ELAPSED USER TIME (SEC)      =   0.0000    
       ELAPSED SYSTEM TIME (SEC)    =   0.0000    
       ELAPSED TOTAL CPU TIME (SEC) =   0.0000    
       ELAPSED WALLCLOCK TIME (SEC) =          0

               CONVERGENCE CHECKS FOR EQUILIBRIUM ITERATION     1

   MAX. PENETRATION ERROR -1.09631E-09 AT NODE 13 OF CONTACT PAIR 
   (BOTSURFTABLE,EXTSURFCUBE)
   MAX. CONTACT FORCE ERROR -417.469E-09   AT NODE 13 OF CONTACT PAIR 
   (BOTSURFTABLE,EXTSURFCUBE)
          THE CONTACT CONSTRAINTS HAVE CONVERGED.

 AVERAGE FORCE                      1.841E-03   TIME AVG. FORCE       9.532E-04
 LARGEST RESIDUAL FORCE            -3.069E-05   AT NODE         13   DOF  3
 LARGEST INCREMENT OF DISP.        -5.119E-03   AT NODE         11   DOF  3
 LARGEST CORRECTION TO DISP.        1.323E-04   AT NODE         17   DOF  3
          FORCE     EQUILIBRIUM NOT ACHIEVED WITHIN TOLERANCE.

 AVERAGE MOMENT                     1.762E-03   TIME AVG. MOMENT      8.859E-04
 LARGEST RESIDUAL MOMENT           -1.561E-17   AT NODE         13   DOF  4
 LARGEST INCREMENT OF ROTATION     -9.018E-03   AT NODE         12   DOF  5
 LARGEST CORRECTION TO ROTATION     3.435E-04   AT NODE         16   DOF  4
          THE MOMENT    EQUILIBRIUM RESPONSE WAS LINEAR IN THIS INCREMENT

  NUMBER OF EQUATIONS =        78     NUMBER OF RHS =    1
  NUMBER OF FLOATING PT. OPERATIONS =  2.00E+05

     CHECK POINT   START OF SOLVER    

     CHECK POINT  END OF SOLVER       

       ELAPSED USER TIME (SEC)      =   0.0000    
       ELAPSED SYSTEM TIME (SEC)    =   0.0000    
       ELAPSED TOTAL CPU TIME (SEC) =   0.0000    
       ELAPSED WALLCLOCK TIME (SEC) =          0

               CONVERGENCE CHECKS FOR EQUILIBRIUM ITERATION     2

   MAX. PENETRATION ERROR -33.8885E-12  AT NODE 12 OF CONTACT PAIR 
   (BOTSURFTABLE,EXTSURFCUBE)
   MAX. CONTACT FORCE ERROR -2.15070E-09 AT NODE 12 OF CONTACT PAIR 
   (BOTSURFTABLE,EXTSURFCUBE)
          THE CONTACT CONSTRAINTS HAVE CONVERGED.

 AVERAGE FORCE                      1.842E-03   TIME AVG. FORCE       9.534E-04
 LARGEST RESIDUAL FORCE             1.891E-06   AT NODE         13   DOF  3
 LARGEST INCREMENT OF DISP.        -5.128E-03   AT NODE         15   DOF  3
 LARGEST CORRECTION TO DISP.       -8.513E-06   AT NODE         15   DOF  3
          THE FORCE     EQUILIBRIUM EQUATIONS HAVE CONVERGED

 AVERAGE MOMENT                     1.763E-03   TIME AVG. MOMENT      8.862E-04
 LARGEST RESIDUAL MOMENT            2.206E-17   AT NODE         16   DOF  4
 LARGEST INCREMENT OF ROTATION      9.040E-03   AT NODE         14   DOF  5
 LARGEST CORRECTION TO ROTATION    -2.188E-05   AT NODE         16   DOF  4
          THE MOMENT    EQUILIBRIUM EQUATIONS HAVE CONVERGED
          TIME INCREMENT MAY NOW INCREASE TO    8.438E-02

 ITERATION SUMMARY FOR THE INCREMENT:   2 TOTAL ITERATIONS, OF WHICH
   0 ARE SEVERE DISCONTINUITY ITERATIONS AND  2 ARE EQUILIBRIUM ITERATIONS.

 TIME INCREMENT COMPLETED  5.625E-02,  FRACTION OF STEP COMPLETED  0.169    
 STEP TIME COMPLETED       0.169    ,  TOTAL TIME COMPLETED        0.169    


  INCREMENT     6 STARTS. ATTEMPT NUMBER  1, TIME INCREMENT  8.438E-02

  NUMBER OF EQUATIONS =        78     NUMBER OF RHS =    1
  NUMBER OF FLOATING PT. OPERATIONS =  2.00E+05

     CHECK POINT   START OF SOLVER    

     CHECK POINT  END OF SOLVER       

       ELAPSED USER TIME (SEC)      =   0.0000    
       ELAPSED SYSTEM TIME (SEC)    =   0.0000    
       ELAPSED TOTAL CPU TIME (SEC) =   0.0000    
       ELAPSED WALLCLOCK TIME (SEC) =          0

               CONVERGENCE CHECKS FOR EQUILIBRIUM ITERATION     1

   MAX. PENETRATION ERROR -5.58641E-09 AT NODE 13 OF CONTACT PAIR 
   (BOTSURFTABLE,EXTSURFCUBE)
   MAX. CONTACT FORCE ERROR -2.12768E-06 AT NODE 13 OF CONTACT PAIR 
   (BOTSURFTABLE,EXTSURFCUBE)
          THE CONTACT CONSTRAINTS HAVE CONVERGED.

 AVERAGE FORCE                      2.774E-03   TIME AVG. FORCE       1.257E-03
 LARGEST RESIDUAL FORCE            -1.167E-04   AT NODE         13   DOF  3
 LARGEST INCREMENT OF DISP.        -7.400E-03   AT NODE         11   DOF  3
 LARGEST CORRECTION TO DISP.        2.916E-04   AT NODE         17   DOF  3
          FORCE     EQUILIBRIUM NOT ACHIEVED WITHIN TOLERANCE.

 AVERAGE MOMENT                     2.580E-03   TIME AVG. MOMENT      1.169E-03
 LARGEST RESIDUAL MOMENT           -7.373E-17   AT NODE         13   DOF  4
 LARGEST INCREMENT OF ROTATION     -1.279E-02   AT NODE         12   DOF  5
 LARGEST CORRECTION TO ROTATION     7.688E-04   AT NODE         16   DOF  4
          THE MOMENT    EQUILIBRIUM RESPONSE WAS LINEAR IN THIS INCREMENT

  NUMBER OF EQUATIONS =        78     NUMBER OF RHS =    1
  NUMBER OF FLOATING PT. OPERATIONS =  2.00E+05

     CHECK POINT   START OF SOLVER    

     CHECK POINT  END OF SOLVER       

       ELAPSED USER TIME (SEC)      =   0.0000    
       ELAPSED SYSTEM TIME (SEC)    =  0.10000    
       ELAPSED TOTAL CPU TIME (SEC) =  0.10000    
       ELAPSED WALLCLOCK TIME (SEC) =          0

               CONVERGENCE CHECKS FOR EQUILIBRIUM ITERATION     2

   MAX. PENETRATION ERROR -147.720E-12   AT NODE 12 OF CONTACT PAIR 
   (BOTSURFTABLE,EXTSURFCUBE)
   MAX. CONTACT FORCE ERROR -25.1858E-09  AT NODE 13 OF CONTACT PAIR 
   (BOTSURFTABLE,EXTSURFCUBE)
          THE CONTACT CONSTRAINTS HAVE CONVERGED.

 AVERAGE FORCE                      2.777E-03   TIME AVG. FORCE       1.257E-03
 LARGEST RESIDUAL FORCE             1.245E-05   AT NODE         13   DOF  3
 LARGEST INCREMENT OF DISP.        -7.432E-03   AT NODE         15   DOF  3
 LARGEST CORRECTION TO DISP.       -3.258E-05   AT NODE         15   DOF  3
          FORCE     EQUILIBRIUM NOT ACHIEVED WITHIN TOLERANCE.

 AVERAGE MOMENT                     2.584E-03   TIME AVG. MOMENT      1.169E-03
 LARGEST RESIDUAL MOMENT           -4.597E-17   AT NODE         13   DOF  5
 LARGEST INCREMENT OF ROTATION      1.287E-02   AT NODE         14   DOF  5
 LARGEST CORRECTION TO ROTATION    -8.375E-05   AT NODE         16   DOF  4
          THE MOMENT    EQUILIBRIUM EQUATIONS HAVE CONVERGED

  NUMBER OF EQUATIONS =        78     NUMBER OF RHS =    1
  NUMBER OF FLOATING PT. OPERATIONS =  2.00E+05

     CHECK POINT   START OF SOLVER    

     CHECK POINT  END OF SOLVER       

       ELAPSED USER TIME (SEC)      =   0.0000    
       ELAPSED SYSTEM TIME (SEC)    =   0.0000    
       ELAPSED TOTAL CPU TIME (SEC) =   0.0000    
       ELAPSED WALLCLOCK TIME (SEC) =          0

               CONVERGENCE CHECKS FOR EQUILIBRIUM ITERATION     3

   MAX. PENETRATION ERROR 15.8517E-12  AT NODE 12 OF CONTACT PAIR 
   (BOTSURFTABLE,EXTSURFCUBE)
   MAX. CONTACT FORCE ERROR 1.00618E-09 AT NODE 12 OF CONTACT PAIR 
   (BOTSURFTABLE,EXTSURFCUBE)
          THE CONTACT CONSTRAINTS HAVE CONVERGED.

 AVERAGE FORCE                      2.777E-03   TIME AVG. FORCE       1.257E-03
 LARGEST RESIDUAL FORCE            -1.353E-06   AT NODE         13   DOF  3
 LARGEST INCREMENT OF DISP.        -7.429E-03   AT NODE         11   DOF  3
 LARGEST CORRECTION TO DISP.        3.534E-06   AT NODE         17   DOF  3
          THE FORCE     EQUILIBRIUM EQUATIONS HAVE CONVERGED

 AVERAGE MOMENT                     2.584E-03   TIME AVG. MOMENT      1.169E-03
 LARGEST RESIDUAL MOMENT            4.597E-17   AT NODE         13   DOF  4
 LARGEST INCREMENT OF ROTATION     -1.287E-02   AT NODE         12   DOF  5
 LARGEST CORRECTION TO ROTATION     9.086E-06   AT NODE         16   DOF  4
          THE MOMENT    EQUILIBRIUM EQUATIONS HAVE CONVERGED
          TIME INCREMENT MAY NOW INCREASE TO    0.127    

 ITERATION SUMMARY FOR THE INCREMENT:   3 TOTAL ITERATIONS, OF WHICH
   0 ARE SEVERE DISCONTINUITY ITERATIONS AND  3 ARE EQUILIBRIUM ITERATIONS.

 TIME INCREMENT COMPLETED  8.438E-02,  FRACTION OF STEP COMPLETED  0.253    
 STEP TIME COMPLETED       0.253    ,  TOTAL TIME COMPLETED        0.253    


  INCREMENT     7 STARTS. ATTEMPT NUMBER  1, TIME INCREMENT  0.127    

  NUMBER OF EQUATIONS =        78     NUMBER OF RHS =    1
  NUMBER OF FLOATING PT. OPERATIONS =  2.00E+05

     CHECK POINT   START OF SOLVER    

     CHECK POINT  END OF SOLVER       

       ELAPSED USER TIME (SEC)      =   0.0000    
       ELAPSED SYSTEM TIME (SEC)    =   0.0000    
       ELAPSED TOTAL CPU TIME (SEC) =   0.0000    
       ELAPSED WALLCLOCK TIME (SEC) =          0

               CONVERGENCE CHECKS FOR EQUILIBRIUM ITERATION     1

   MAX. PENETRATION ERROR -23.1108E-09  AT NODE 13 OF CONTACT PAIR 
   (BOTSURFTABLE,EXTSURFCUBE)
   MAX. CONTACT FORCE ERROR -8.80556E-06 AT NODE 13 OF CONTACT PAIR 
   (BOTSURFTABLE,EXTSURFCUBE)
          THE CONTACT CONSTRAINTS HAVE CONVERGED.

 AVERAGE FORCE                      4.193E-03   TIME AVG. FORCE       1.677E-03
 LARGEST RESIDUAL FORCE            -3.898E-04   AT NODE         13   DOF  3
 LARGEST INCREMENT OF DISP.        -1.057E-02   AT NODE         15   DOF  3
 LARGEST CORRECTION TO DISP.        5.704E-04   AT NODE          9   DOF  3
          FORCE     EQUILIBRIUM NOT ACHIEVED WITHIN TOLERANCE.

 AVERAGE MOMENT                     3.743E-03   TIME AVG. MOMENT      1.537E-03
 LARGEST RESIDUAL MOMENT           -6.072E-17   AT NODE         10   DOF  5
 LARGEST INCREMENT OF ROTATION      1.775E-02   AT NODE         14   DOF  5
 LARGEST CORRECTION TO ROTATION    -1.546E-03   AT NODE         10   DOF  4
          THE MOMENT    EQUILIBRIUM RESPONSE WAS LINEAR IN THIS INCREMENT

  NUMBER OF EQUATIONS =        78     NUMBER OF RHS =    1
  NUMBER OF FLOATING PT. OPERATIONS =  2.00E+05

     CHECK POINT   START OF SOLVER    

     CHECK POINT  END OF SOLVER       

       ELAPSED USER TIME (SEC)      =   0.0000    
       ELAPSED SYSTEM TIME (SEC)    =   0.0000    
       ELAPSED TOTAL CPU TIME (SEC) =   0.0000    
       ELAPSED WALLCLOCK TIME (SEC) =          0

               CONVERGENCE CHECKS FOR EQUILIBRIUM ITERATION     2

   MAX. PENETRATION ERROR -773.284E-12   AT NODE 13 OF CONTACT PAIR 
   (BOTSURFTABLE,EXTSURFCUBE)
   MAX. CONTACT FORCE ERROR -294.634E-09   AT NODE 13 OF CONTACT PAIR 
   (BOTSURFTABLE,EXTSURFCUBE)
          THE CONTACT CONSTRAINTS HAVE CONVERGED.

 AVERAGE FORCE                      4.204E-03   TIME AVG. FORCE       1.678E-03
 LARGEST RESIDUAL FORCE             7.024E-05   AT NODE         13   DOF  3
 LARGEST INCREMENT OF DISP.        -1.068E-02   AT NODE         11   DOF  3
 LARGEST CORRECTION TO DISP.       -1.102E-04   AT NODE         11   DOF  3
          FORCE     EQUILIBRIUM NOT ACHIEVED WITHIN TOLERANCE.

 AVERAGE MOMENT                     3.757E-03   TIME AVG. MOMENT      1.539E-03
 LARGEST RESIDUAL MOMENT           -8.327E-17   AT NODE         12   DOF  4
 LARGEST INCREMENT OF ROTATION     -1.803E-02   AT NODE         12   DOF  5
 LARGEST CORRECTION TO ROTATION     2.826E-04   AT NODE         10   DOF  4
          THE MOMENT    EQUILIBRIUM EQUATIONS HAVE CONVERGED

  NUMBER OF EQUATIONS =        78     NUMBER OF RHS =    1
  NUMBER OF FLOATING PT. OPERATIONS =  2.00E+05

     CHECK POINT   START OF SOLVER    

     CHECK POINT  END OF SOLVER       

       ELAPSED USER TIME (SEC)      =   0.0000    
       ELAPSED SYSTEM TIME (SEC)    =   0.0000    
       ELAPSED TOTAL CPU TIME (SEC) =   0.0000    
       ELAPSED WALLCLOCK TIME (SEC) =          0

               CONVERGENCE CHECKS FOR EQUILIBRIUM ITERATION     3

   MAX. PENETRATION ERROR -25.7822E-12  AT NODE 13 OF CONTACT PAIR 
   (BOTSURFTABLE,EXTSURFCUBE)
   MAX. CONTACT FORCE ERROR -9.82342E-09 AT NODE 13 OF CONTACT PAIR 
   (BOTSURFTABLE,EXTSURFCUBE)
          THE CONTACT CONSTRAINTS HAVE CONVERGED.

 AVERAGE FORCE                      4.202E-03   TIME AVG. FORCE       1.678E-03
 LARGEST RESIDUAL FORCE            -1.285E-05   AT NODE         13   DOF  3
 LARGEST INCREMENT OF DISP.        -1.066E-02   AT NODE         15   DOF  3
 LARGEST CORRECTION TO DISP.        2.012E-05   AT NODE          9   DOF  3
          FORCE     EQUILIBRIUM NOT ACHIEVED WITHIN TOLERANCE.

 AVERAGE MOMENT                     3.754E-03   TIME AVG. MOMENT      1.538E-03
 LARGEST RESIDUAL MOMENT            7.980E-17   AT NODE         13   DOF  4
 LARGEST INCREMENT OF ROTATION      1.798E-02   AT NODE         14   DOF  5
 LARGEST CORRECTION TO ROTATION    -5.158E-05   AT NODE         10   DOF  4
          THE MOMENT    EQUILIBRIUM EQUATIONS HAVE CONVERGED

  NUMBER OF EQUATIONS =        78     NUMBER OF RHS =    1
  NUMBER OF FLOATING PT. OPERATIONS =  2.00E+05

     CHECK POINT   START OF SOLVER    

     CHECK POINT  END OF SOLVER       

       ELAPSED USER TIME (SEC)      =  0.10000    
       ELAPSED SYSTEM TIME (SEC)    =   0.0000    
       ELAPSED TOTAL CPU TIME (SEC) =  0.10000    
       ELAPSED WALLCLOCK TIME (SEC) =          0

               CONVERGENCE CHECKS FOR EQUILIBRIUM ITERATION     4

   MAX. PENETRATION ERROR -3.88653E-12 AT NODE 14 OF CONTACT PAIR 
   (BOTSURFTABLE,EXTSURFCUBE)
   MAX. CONTACT FORCE ERROR -329.407E-12   AT NODE 13 OF CONTACT PAIR 
   (BOTSURFTABLE,EXTSURFCUBE)
          THE CONTACT CONSTRAINTS HAVE CONVERGED.

 AVERAGE FORCE                      4.203E-03   TIME AVG. FORCE       1.678E-03
 LARGEST RESIDUAL FORCE             2.353E-06   AT NODE         13   DOF  3
 LARGEST INCREMENT OF DISP.        -1.067E-02   AT NODE         11   DOF  3
 LARGEST CORRECTION TO DISP.       -3.687E-06   AT NODE          9   DOF  3
          THE FORCE     EQUILIBRIUM EQUATIONS HAVE CONVERGED

 AVERAGE MOMENT                     3.755E-03   TIME AVG. MOMENT      1.539E-03
 LARGEST RESIDUAL MOMENT            8.327E-17   AT NODE         13   DOF  5
 LARGEST INCREMENT OF ROTATION     -1.799E-02   AT NODE         12   DOF  5
 LARGEST CORRECTION TO ROTATION     9.446E-06   AT NODE         10   DOF  4
          THE MOMENT    EQUILIBRIUM EQUATIONS HAVE CONVERGED
          TIME INCREMENT MAY NOW INCREASE TO    0.190    

 ITERATION SUMMARY FOR THE INCREMENT:   4 TOTAL ITERATIONS, OF WHICH
   0 ARE SEVERE DISCONTINUITY ITERATIONS AND  4 ARE EQUILIBRIUM ITERATIONS.

 TIME INCREMENT COMPLETED  0.127    ,  FRACTION OF STEP COMPLETED  0.380    
 STEP TIME COMPLETED       0.380    ,  TOTAL TIME COMPLETED        0.380    


  INCREMENT     8 STARTS. ATTEMPT NUMBER  1, TIME INCREMENT  0.190    

  NUMBER OF EQUATIONS =        78     NUMBER OF RHS =    1
  NUMBER OF FLOATING PT. OPERATIONS =  2.00E+05

     CHECK POINT   START OF SOLVER    

     CHECK POINT  END OF SOLVER       

       ELAPSED USER TIME (SEC)      =   0.0000    
       ELAPSED SYSTEM TIME (SEC)    =   0.0000    
       ELAPSED TOTAL CPU TIME (SEC) =   0.0000    
       ELAPSED WALLCLOCK TIME (SEC) =          0

               CONVERGENCE CHECKS FOR EQUILIBRIUM ITERATION     1

   MAX. PENETRATION ERROR -73.1304E-09  AT NODE 13 OF CONTACT PAIR 
   (BOTSURFTABLE,EXTSURFCUBE)
   MAX. CONTACT FORCE ERROR -27.8852E-06  AT NODE 13 OF CONTACT PAIR 
   (BOTSURFTABLE,EXTSURFCUBE)
          THE CONTACT CONSTRAINTS HAVE CONVERGED.

 AVERAGE FORCE                      6.368E-03   TIME AVG. FORCE       2.264E-03
 LARGEST RESIDUAL FORCE            -1.097E-03   AT NODE         13   DOF  3
 LARGEST INCREMENT OF DISP.        -1.506E-02   AT NODE         17   DOF  3
 LARGEST CORRECTION TO DISP.        9.433E-04   AT NODE          9   DOF  3
          FORCE     EQUILIBRIUM NOT ACHIEVED WITHIN TOLERANCE.

 AVERAGE MOMENT                     5.388E-03   TIME AVG. MOMENT      2.020E-03
 LARGEST RESIDUAL MOMENT            4.163E-17   AT NODE         13   DOF  5
 LARGEST INCREMENT OF ROTATION      2.427E-02   AT NODE         14   DOF  5
 LARGEST CORRECTION TO ROTATION    -2.715E-03   AT NODE         10   DOF  4
          THE MOMENT    EQUILIBRIUM RESPONSE WAS LINEAR IN THIS INCREMENT

  NUMBER OF EQUATIONS =        78     NUMBER OF RHS =    1
  NUMBER OF FLOATING PT. OPERATIONS =  2.00E+05

     CHECK POINT   START OF SOLVER    

     CHECK POINT  END OF SOLVER       

       ELAPSED USER TIME (SEC)      =   0.0000    
       ELAPSED SYSTEM TIME (SEC)    =   0.0000    
       ELAPSED TOTAL CPU TIME (SEC) =   0.0000    
       ELAPSED WALLCLOCK TIME (SEC) =          0

               CONVERGENCE CHECKS FOR EQUILIBRIUM ITERATION     2

   MAX. PENETRATION ERROR -6.89443E-09 AT NODE 13 OF CONTACT PAIR 
   (BOTSURFTABLE,EXTSURFCUBE)
   MAX. CONTACT FORCE ERROR -2.62897E-06 AT NODE 13 OF CONTACT PAIR 
   (BOTSURFTABLE,EXTSURFCUBE)
          THE CONTACT CONSTRAINTS HAVE CONVERGED.

 AVERAGE FORCE                      6.406E-03   TIME AVG. FORCE       2.269E-03
 LARGEST RESIDUAL FORCE             3.330E-04   AT NODE         13   DOF  3
 LARGEST INCREMENT OF DISP.        -1.538E-02   AT NODE          9   DOF  3
 LARGEST CORRECTION TO DISP.       -3.254E-04   AT NODE          9   DOF  3
          FORCE     EQUILIBRIUM NOT ACHIEVED WITHIN TOLERANCE.

 AVERAGE MOMENT                     5.428E-03   TIME AVG. MOMENT      2.025E-03
 LARGEST RESIDUAL MOMENT           -9.541E-17   AT NODE         13   DOF  5
 LARGEST INCREMENT OF ROTATION     -2.510E-02   AT NODE         12   DOF  5
 LARGEST CORRECTION TO ROTATION     8.295E-04   AT NODE         10   DOF  4
          THE MOMENT    EQUILIBRIUM EQUATIONS HAVE CONVERGED

  NUMBER OF EQUATIONS =        78     NUMBER OF RHS =    1
  NUMBER OF FLOATING PT. OPERATIONS =  2.00E+05

     CHECK POINT   START OF SOLVER    

     CHECK POINT  END OF SOLVER       

       ELAPSED USER TIME (SEC)      =   0.0000    
       ELAPSED SYSTEM TIME (SEC)    =   0.0000    
       ELAPSED TOTAL CPU TIME (SEC) =   0.0000    
       ELAPSED WALLCLOCK TIME (SEC) =          0

               CONVERGENCE CHECKS FOR EQUILIBRIUM ITERATION     3

   MAX. PENETRATION ERROR -1.66944E-09 AT NODE 10 OF CONTACT PAIR 
   (BOTSURFTABLE,EXTSURFCUBE)
   MAX. CONTACT FORCE ERROR -251.455E-09   AT NODE 13 OF CONTACT PAIR 
   (BOTSURFTABLE,EXTSURFCUBE)
          THE CONTACT CONSTRAINTS HAVE CONVERGED.

 AVERAGE FORCE                      6.394E-03   TIME AVG. FORCE       2.268E-03
 LARGEST RESIDUAL FORCE            -1.035E-04   AT NODE         13   DOF  3
 LARGEST INCREMENT OF DISP.        -1.528E-02   AT NODE         17   DOF  3
 LARGEST CORRECTION TO DISP.        1.010E-04   AT NODE          9   DOF  3
          FORCE     EQUILIBRIUM NOT ACHIEVED WITHIN TOLERANCE.

 AVERAGE MOMENT                     5.416E-03   TIME AVG. MOMENT      2.023E-03
 LARGEST RESIDUAL MOMENT           -1.365E-16   AT NODE         10   DOF  4
 LARGEST INCREMENT OF ROTATION      2.485E-02   AT NODE         14   DOF  5
 LARGEST CORRECTION TO ROTATION    -2.563E-04   AT NODE         10   DOF  4
          THE MOMENT    EQUILIBRIUM EQUATIONS HAVE CONVERGED

  NUMBER OF EQUATIONS =        78     NUMBER OF RHS =    1
  NUMBER OF FLOATING PT. OPERATIONS =  2.00E+05

     CHECK POINT   START OF SOLVER    

     CHECK POINT  END OF SOLVER       

       ELAPSED USER TIME (SEC)      =   0.0000    
       ELAPSED SYSTEM TIME (SEC)    =   0.0000    
       ELAPSED TOTAL CPU TIME (SEC) =   0.0000    
       ELAPSED WALLCLOCK TIME (SEC) =          0

               CONVERGENCE CHECKS FOR EQUILIBRIUM ITERATION     4

   MAX. PENETRATION ERROR 547.052E-12   AT NODE 10 OF CONTACT PAIR 
   (BOTSURFTABLE,EXTSURFCUBE)
   MAX. CONTACT FORCE ERROR 34.7596E-09  AT NODE 10 OF CONTACT PAIR 
   (BOTSURFTABLE,EXTSURFCUBE)
          THE CONTACT CONSTRAINTS HAVE CONVERGED.

 AVERAGE FORCE                      6.398E-03   TIME AVG. FORCE       2.268E-03
 LARGEST RESIDUAL FORCE             3.220E-05   AT NODE         13   DOF  3
 LARGEST INCREMENT OF DISP.        -1.531E-02   AT NODE          9   DOF  3
 LARGEST CORRECTION TO DISP.       -3.224E-05   AT NODE          9   DOF  3
          FORCE     EQUILIBRIUM NOT ACHIEVED WITHIN TOLERANCE.

 AVERAGE MOMENT                     5.420E-03   TIME AVG. MOMENT      2.024E-03
 LARGEST RESIDUAL MOMENT           -8.712E-17   AT NODE         16   DOF  4
 LARGEST INCREMENT OF ROTATION      2.493E-02   AT NODE         10   DOF  4
 LARGEST CORRECTION TO ROTATION     8.032E-05   AT NODE         10   DOF  4
          THE MOMENT    EQUILIBRIUM EQUATIONS HAVE CONVERGED

  NUMBER OF EQUATIONS =        78     NUMBER OF RHS =    1
  NUMBER OF FLOATING PT. OPERATIONS =  2.00E+05

     CHECK POINT   START OF SOLVER    

     CHECK POINT  END OF SOLVER       

       ELAPSED USER TIME (SEC)      =   0.0000    
       ELAPSED SYSTEM TIME (SEC)    =   0.0000    
       ELAPSED TOTAL CPU TIME (SEC) =   0.0000    
       ELAPSED WALLCLOCK TIME (SEC) =          0

               CONVERGENCE CHECKS FOR EQUILIBRIUM ITERATION     5

   MAX. PENETRATION ERROR -465.139E-12   AT NODE 10 OF CONTACT PAIR 
   (BOTSURFTABLE,EXTSURFCUBE)
   MAX. CONTACT FORCE ERROR -29.5548E-09  AT NODE 10 OF CONTACT PAIR 
   (BOTSURFTABLE,EXTSURFCUBE)
          THE CONTACT CONSTRAINTS HAVE CONVERGED.

 AVERAGE FORCE                      6.352E-03   TIME AVG. FORCE       2.262E-03
 LARGEST RESIDUAL FORCE            -1.007E-05   AT NODE         13   DOF  3
 LARGEST INCREMENT OF DISP.        -1.531E-02   AT NODE         17   DOF  3
 LARGEST CORRECTION TO DISP.        1.590E-05   AT NODE          9   DOF  3
          THE FORCE     EQUILIBRIUM EQUATIONS HAVE CONVERGED

 AVERAGE MOMENT                     5.418E-03   TIME AVG. MOMENT      2.023E-03
 LARGEST RESIDUAL MOMENT           -3.002E-17   AT NODE         11   DOF  4
 LARGEST INCREMENT OF ROTATION     -2.490E-02   AT NODE         16   DOF  4
 LARGEST CORRECTION TO ROTATION    -2.849E-05   AT NODE         10   DOF  4
          THE MOMENT    EQUILIBRIUM EQUATIONS HAVE CONVERGED

 ITERATION SUMMARY FOR THE INCREMENT:   5 TOTAL ITERATIONS, OF WHICH
   0 ARE SEVERE DISCONTINUITY ITERATIONS AND  5 ARE EQUILIBRIUM ITERATIONS.

 TIME INCREMENT COMPLETED  0.190    ,  FRACTION OF STEP COMPLETED  0.570    
 STEP TIME COMPLETED       0.570    ,  TOTAL TIME COMPLETED        0.570    


  INCREMENT     9 STARTS. ATTEMPT NUMBER  1, TIME INCREMENT  0.190    

  NUMBER OF EQUATIONS =        78     NUMBER OF RHS =    1
  NUMBER OF FLOATING PT. OPERATIONS =  2.00E+05

     CHECK POINT   START OF SOLVER    

     CHECK POINT  END OF SOLVER       

       ELAPSED USER TIME (SEC)      =   0.0000    
       ELAPSED SYSTEM TIME (SEC)    =   0.0000    
       ELAPSED TOTAL CPU TIME (SEC) =   0.0000    
       ELAPSED WALLCLOCK TIME (SEC) =          0
 

 ***WARNING: THE SYSTEM MATRIX HAS 2 NEGATIVE EIGENVALUES.
             EXPLANATIONS ARE SUGGESTED AFTER THE FIRST OCCURRENCE OF THIS MESSAGE.

               CONVERGENCE CHECKS FOR EQUILIBRIUM ITERATION     1

   MAX. PENETRATION ERROR -37.3788E-09  AT NODE 13 OF CONTACT PAIR 
   (BOTSURFTABLE,EXTSURFCUBE)
   MAX. CONTACT FORCE ERROR -14.2672E-06  AT NODE 13 OF CONTACT PAIR 
   (BOTSURFTABLE,EXTSURFCUBE)
          THE CONTACT CONSTRAINTS HAVE CONVERGED.

 AVERAGE FORCE                      8.363E-03   TIME AVG. FORCE       2.940E-03
 LARGEST RESIDUAL FORCE            -1.033E-03   AT NODE         13   DOF  3
 LARGEST INCREMENT OF DISP.        -1.480E-02   AT NODE         17   DOF  3
 LARGEST CORRECTION TO DISP.        6.036E-04   AT NODE          9   DOF  3
          FORCE     EQUILIBRIUM NOT ACHIEVED WITHIN TOLERANCE.

 AVERAGE MOMENT                     5.252E-03   TIME AVG. MOMENT      2.382E-03
 LARGEST RESIDUAL MOMENT           -4.171E-17   AT NODE         11   DOF  5
 LARGEST INCREMENT OF ROTATION     -2.300E-02   AT NODE         16   DOF  4
 LARGEST CORRECTION TO ROTATION    -1.962E-03   AT NODE         10   DOF  4
          THE MOMENT    EQUILIBRIUM RESPONSE WAS LINEAR IN THIS INCREMENT

  NUMBER OF EQUATIONS =        78     NUMBER OF RHS =    1
  NUMBER OF FLOATING PT. OPERATIONS =  2.00E+05

     CHECK POINT   START OF SOLVER    

     CHECK POINT  END OF SOLVER       

       ELAPSED USER TIME (SEC)      =  0.10000    
       ELAPSED SYSTEM TIME (SEC)    =   0.0000    
       ELAPSED TOTAL CPU TIME (SEC) =  0.10000    
       ELAPSED WALLCLOCK TIME (SEC) =          0
 

 ***WARNING: THE SYSTEM MATRIX HAS 2 NEGATIVE EIGENVALUES.
             EXPLANATIONS ARE SUGGESTED AFTER THE FIRST OCCURRENCE OF THIS MESSAGE.

               CONVERGENCE CHECKS FOR EQUILIBRIUM ITERATION     2

   MAX. PENETRATION ERROR 40.3546E-09  AT NODE 16 OF CONTACT PAIR 
   (BOTSURFTABLE,EXTSURFCUBE)
   MAX. CONTACT FORCE ERROR -2.72664E-06 AT NODE 13 OF CONTACT PAIR 
   (BOTSURFTABLE,EXTSURFCUBE)
          THE CONTACT CONSTRAINTS HAVE CONVERGED.

 AVERAGE FORCE                      8.259E-03   TIME AVG. FORCE       2.929E-03
 LARGEST RESIDUAL FORCE            -5.037E-04   AT NODE          7   DOF  3
 LARGEST INCREMENT OF DISP.        -1.542E-02   AT NODE         17   DOF  3
 LARGEST CORRECTION TO DISP.       -6.244E-04   AT NODE         17   DOF  3
          FORCE     EQUILIBRIUM NOT ACHIEVED WITHIN TOLERANCE.

 AVERAGE MOMENT                     4.696E-03   TIME AVG. MOMENT      2.320E-03
 LARGEST RESIDUAL MOMENT           -1.326E-16   AT NODE         12   DOF  5
 LARGEST INCREMENT OF ROTATION     -2.400E-02   AT NODE         16   DOF  4
 LARGEST CORRECTION TO ROTATION    -1.006E-03   AT NODE         16   DOF  4
          THE MOMENT    EQUILIBRIUM EQUATIONS HAVE CONVERGED

  NUMBER OF EQUATIONS =        78     NUMBER OF RHS =    1
  NUMBER OF FLOATING PT. OPERATIONS =  2.00E+05

     CHECK POINT   START OF SOLVER    

     CHECK POINT  END OF SOLVER       

       ELAPSED USER TIME (SEC)      =   0.0000    
       ELAPSED SYSTEM TIME (SEC)    =   0.0000    
       ELAPSED TOTAL CPU TIME (SEC) =   0.0000    
       ELAPSED WALLCLOCK TIME (SEC) =          0
 

 ***WARNING: THE SYSTEM MATRIX HAS 2 NEGATIVE EIGENVALUES.
             EXPLANATIONS ARE SUGGESTED AFTER THE FIRST OCCURRENCE OF THIS MESSAGE.

               CONVERGENCE CHECKS FOR EQUILIBRIUM ITERATION     3

   MAX. PENETRATION ERROR -160.944E-09   AT NODE 10 OF CONTACT PAIR 
   (BOTSURFTABLE,EXTSURFCUBE)
   MAX. CONTACT FORCE ERROR -10.2348E-06  AT NODE 10 OF CONTACT PAIR 
   (BOTSURFTABLE,EXTSURFCUBE)
          THE CONTACT CONSTRAINTS HAVE CONVERGED.

 AVERAGE FORCE                      8.245E-03   TIME AVG. FORCE       2.927E-03
 LARGEST RESIDUAL FORCE             1.115E-03   AT NODE          5   DOF  3
 LARGEST INCREMENT OF DISP.        -1.700E-02   AT NODE         17   DOF  3
 LARGEST CORRECTION TO DISP.        1.873E-03   AT NODE          9   DOF  3
          FORCE     EQUILIBRIUM NOT ACHIEVED WITHIN TOLERANCE.

 AVERAGE MOMENT                     4.685E-03   TIME AVG. MOMENT      2.319E-03
 LARGEST RESIDUAL MOMENT           -1.422E-16   AT NODE         13   DOF  5
 LARGEST INCREMENT OF ROTATION     -2.462E-02   AT NODE         16   DOF  4
 LARGEST CORRECTION TO ROTATION    -1.358E-03   AT NODE         10   DOF  4
          THE MOMENT    EQUILIBRIUM EQUATIONS HAVE CONVERGED

  NUMBER OF EQUATIONS =        78     NUMBER OF RHS =    1
  NUMBER OF FLOATING PT. OPERATIONS =  2.00E+05

     CHECK POINT   START OF SOLVER    

     CHECK POINT  END OF SOLVER       

       ELAPSED USER TIME (SEC)      =   0.0000    
       ELAPSED SYSTEM TIME (SEC)    =   0.0000    
       ELAPSED TOTAL CPU TIME (SEC) =   0.0000    
       ELAPSED WALLCLOCK TIME (SEC) =          0
 

 ***WARNING: THE SYSTEM MATRIX HAS 2 NEGATIVE EIGENVALUES.
             EXPLANATIONS ARE SUGGESTED AFTER THE FIRST OCCURRENCE OF THIS MESSAGE.

               CONVERGENCE CHECKS FOR EQUILIBRIUM ITERATION     4

   MAX. PENETRATION ERROR -915.717E-09   AT NODE 10 OF CONTACT PAIR 
   (BOTSURFTABLE,EXTSURFCUBE)
   MAX. CONTACT FORCE ERROR -58.2171E-06  AT NODE 10 OF CONTACT PAIR 
   (BOTSURFTABLE,EXTSURFCUBE)
          THE CONTACT CONSTRAINTS HAVE CONVERGED.

 AVERAGE FORCE                      8.272E-03   TIME AVG. FORCE       2.930E-03
 LARGEST RESIDUAL FORCE             5.346E-03   AT NODE          5   DOF  3
 LARGEST INCREMENT OF DISP.        -2.747E-02   AT NODE         17   DOF  3
 LARGEST CORRECTION TO DISP.       -1.047E-02   AT NODE         17   DOF  3
          FORCE     EQUILIBRIUM NOT ACHIEVED WITHIN TOLERANCE.

 AVERAGE MOMENT                     4.709E-03   TIME AVG. MOMENT      2.322E-03
 LARGEST RESIDUAL MOMENT            1.995E-16   AT NODE         13   DOF  5
 LARGEST INCREMENT OF ROTATION     -3.107E-02   AT NODE         16   DOF  4
 LARGEST CORRECTION TO ROTATION    -7.417E-03   AT NODE         17   DOF  4
          THE MOMENT    EQUILIBRIUM EQUATIONS HAVE CONVERGED
 

 ***NOTE: THE SOLUTION APPEARS TO BE DIVERGING. CONVERGENCE IS JUDGED UNLIKELY.


  INCREMENT     9 STARTS. ATTEMPT NUMBER  2, TIME INCREMENT  4.746E-02

  NUMBER OF EQUATIONS =        78     NUMBER OF RHS =    1
  NUMBER OF FLOATING PT. OPERATIONS =  2.00E+05

     CHECK POINT   START OF SOLVER    

     CHECK POINT  END OF SOLVER       

       ELAPSED USER TIME (SEC)      =   0.0000    
       ELAPSED SYSTEM TIME (SEC)    =   0.0000    
       ELAPSED TOTAL CPU TIME (SEC) =   0.0000    
       ELAPSED WALLCLOCK TIME (SEC) =          0

               CONVERGENCE CHECKS FOR EQUILIBRIUM ITERATION     1

   MAX. PENETRATION ERROR -9.32340E-09 AT NODE 16 OF CONTACT PAIR 
   (BOTSURFTABLE,EXTSURFCUBE)
   MAX. CONTACT FORCE ERROR -592.524E-09   AT NODE 16 OF CONTACT PAIR 
   (BOTSURFTABLE,EXTSURFCUBE)
          THE CONTACT CONSTRAINTS HAVE CONVERGED.

 AVERAGE FORCE                      6.646E-03   TIME AVG. FORCE       2.749E-03
 LARGEST RESIDUAL FORCE             1.742E-04   AT NODE          7   DOF  3
 LARGEST INCREMENT OF DISP.        -3.881E-03   AT NODE          9   DOF  3
 LARGEST CORRECTION TO DISP.        2.558E-04   AT NODE         17   DOF  3
          FORCE     EQUILIBRIUM NOT ACHIEVED WITHIN TOLERANCE.

 AVERAGE MOMENT                     4.109E-03   TIME AVG. MOMENT      2.255E-03
 LARGEST RESIDUAL MOMENT           -8.617E-17   AT NODE         16   DOF  4
 LARGEST INCREMENT OF ROTATION      5.988E-03   AT NODE         10   DOF  4
 LARGEST CORRECTION TO ROTATION     4.215E-04   AT NODE         16   DOF  4
          THE MOMENT    EQUILIBRIUM RESPONSE WAS LINEAR IN THIS INCREMENT

  NUMBER OF EQUATIONS =        78     NUMBER OF RHS =    1
  NUMBER OF FLOATING PT. OPERATIONS =  2.00E+05

     CHECK POINT   START OF SOLVER    

     CHECK POINT  END OF SOLVER       

       ELAPSED USER TIME (SEC)      =   0.0000    
       ELAPSED SYSTEM TIME (SEC)    =   0.0000    
       ELAPSED TOTAL CPU TIME (SEC) =   0.0000    
       ELAPSED WALLCLOCK TIME (SEC) =          0

               CONVERGENCE CHECKS FOR EQUILIBRIUM ITERATION     2

   MAX. PENETRATION ERROR -180.495E-09   AT NODE 10 OF CONTACT PAIR 
   (BOTSURFTABLE,EXTSURFCUBE)
   MAX. CONTACT FORCE ERROR -11.4701E-06  AT NODE 10 OF CONTACT PAIR 
   (BOTSURFTABLE,EXTSURFCUBE)
          THE CONTACT CONSTRAINTS HAVE CONVERGED.

 AVERAGE FORCE                      6.632E-03   TIME AVG. FORCE       2.748E-03
 LARGEST RESIDUAL FORCE             1.331E-03   AT NODE          5   DOF  3
 LARGEST INCREMENT OF DISP.        -6.627E-03   AT NODE         17   DOF  3
 LARGEST CORRECTION TO DISP.       -3.055E-03   AT NODE         17   DOF  3
          FORCE     EQUILIBRIUM NOT ACHIEVED WITHIN TOLERANCE.

 AVERAGE MOMENT                     3.884E-03   TIME AVG. MOMENT      2.230E-03
 LARGEST RESIDUAL MOMENT           -8.142E-17   AT NODE         10   DOF  4
 LARGEST INCREMENT OF ROTATION     -7.694E-03   AT NODE         16   DOF  4
 LARGEST CORRECTION TO ROTATION    -2.063E-03   AT NODE         17   DOF  4
          THE MOMENT    EQUILIBRIUM EQUATIONS HAVE CONVERGED

  NUMBER OF EQUATIONS =        78     NUMBER OF RHS =    1
  NUMBER OF FLOATING PT. OPERATIONS =  2.00E+05

     CHECK POINT   START OF SOLVER    

     CHECK POINT  END OF SOLVER       

       ELAPSED USER TIME (SEC)      =   0.0000    
       ELAPSED SYSTEM TIME (SEC)    =   0.0000    
       ELAPSED TOTAL CPU TIME (SEC) =   0.0000    
       ELAPSED WALLCLOCK TIME (SEC) =          0

                    1 SEVERE DISCONTINUITIES OCCURRED DURING THIS ITERATION.
                    1 POINTS CHANGED FROM CLOSED TO OPEN

               CONVERGENCE CHECKS FOR SEVERE DISCONTINUITY ITERATION     1

   MAX. PENETRATION ERROR -9.92470E-06 AT NODE 12 OF CONTACT PAIR 
   (BOTSURFTABLE,EXTSURFCUBE)
   MAX. CONTACT FORCE ERROR -3.58811E-03 AT NODE 13 OF CONTACT PAIR 
   (BOTSURFTABLE,EXTSURFCUBE)
          THE ESTIMATED CONTACT FORCE ERROR IS OUTSIDE OF CONVERGENCE TOLERANCES.

 AVERAGE FORCE                      7.686E-03   TIME AVG. FORCE       2.865E-03
 LARGEST RESIDUAL FORCE             2.416E-02   AT NODE          7   DOF  3
 LARGEST INCREMENT OF DISP.        -6.683E-02   AT NODE          9   DOF  3
 LARGEST CORRECTION TO DISP.        7.076E-02   AT NODE         17   DOF  3
          FORCE     EQUILIBRIUM NOT ACHIEVED WITHIN TOLERANCE.

 AVERAGE MOMENT                     3.818E-03   TIME AVG. MOMENT      2.223E-03
 LARGEST RESIDUAL MOMENT            2.122E-16   AT NODE         10   DOF  4
 LARGEST INCREMENT OF ROTATION      4.616E-02   AT NODE          9   DOF  4
 LARGEST CORRECTION TO ROTATION     5.000E-02   AT NODE         17   DOF  4
          THE MOMENT    EQUILIBRIUM EQUATIONS HAVE CONVERGED

  NUMBER OF EQUATIONS =        78     NUMBER OF RHS =    1
  NUMBER OF FLOATING PT. OPERATIONS =  2.00E+05

     CHECK POINT   START OF SOLVER    

     CHECK POINT  END OF SOLVER       

       ELAPSED USER TIME (SEC)      =   0.0000    
       ELAPSED SYSTEM TIME (SEC)    =   0.0000    
       ELAPSED TOTAL CPU TIME (SEC) =   0.0000    
       ELAPSED WALLCLOCK TIME (SEC) =          0
 

 ***WARNING: THE SYSTEM MATRIX HAS 2 NEGATIVE EIGENVALUES.
             EXPLANATIONS ARE SUGGESTED AFTER THE FIRST OCCURRENCE OF THIS MESSAGE.

                    1 SEVERE DISCONTINUITIES OCCURRED DURING THIS ITERATION.
                    1 POINTS CHANGED FROM CLOSED TO OPEN

               CONVERGENCE CHECKS FOR SEVERE DISCONTINUITY ITERATION     2

   MAX. PENETRATION ERROR 8.20327E-06 AT NODE 12 OF CONTACT PAIR 
   (BOTSURFTABLE,EXTSURFCUBE)
   MAX. CONTACT FORCE ERROR -8.11765E-03 AT NODE 14 OF CONTACT PAIR 
   (BOTSURFTABLE,EXTSURFCUBE)
          THE ESTIMATED CONTACT FORCE ERROR IS OUTSIDE OF CONVERGENCE TOLERANCES.

 AVERAGE FORCE                      9.881E-03   TIME AVG. FORCE       3.109E-03
 LARGEST RESIDUAL FORCE            -2.740E-02   AT NODE          5   DOF  3
 LARGEST INCREMENT OF DISP.        -0.106       AT NODE          9   DOF  3
 LARGEST CORRECTION TO DISP.       -3.915E-02   AT NODE          9   DOF  3
          FORCE     EQUILIBRIUM NOT ACHIEVED WITHIN TOLERANCE.

 AVERAGE MOMENT                     4.603E-03   TIME AVG. MOMENT      2.310E-03
 LARGEST RESIDUAL MOMENT            1.266E-16   AT NODE         13   DOF  5
 LARGEST INCREMENT OF ROTATION      7.096E-02   AT NODE         10   DOF  4
 LARGEST CORRECTION TO ROTATION    -3.378E-02   AT NODE         12   DOF  5
          THE MOMENT    EQUILIBRIUM EQUATIONS HAVE CONVERGED

  NUMBER OF EQUATIONS =        78     NUMBER OF RHS =    1
  NUMBER OF FLOATING PT. OPERATIONS =  2.00E+05

     CHECK POINT   START OF SOLVER    

     CHECK POINT  END OF SOLVER       

       ELAPSED USER TIME (SEC)      =   0.0000    
       ELAPSED SYSTEM TIME (SEC)    =   0.0000    
       ELAPSED TOTAL CPU TIME (SEC) =   0.0000    
       ELAPSED WALLCLOCK TIME (SEC) =          0
 

 ***WARNING: THE SYSTEM MATRIX HAS 2 NEGATIVE EIGENVALUES.
             EXPLANATIONS ARE SUGGESTED AFTER THE FIRST OCCURRENCE OF THIS MESSAGE.

               CONVERGENCE CHECKS FOR EQUILIBRIUM ITERATION     3

   MAX. PENETRATION ERROR -11.0047E-06  AT NODE 13 OF CONTACT PAIR 
   (BOTSURFTABLE,EXTSURFCUBE)
   MAX. CONTACT FORCE ERROR -4.21490E-03 AT NODE 13 OF CONTACT PAIR 
   (BOTSURFTABLE,EXTSURFCUBE)
          THE ESTIMATED CONTACT FORCE ERROR IS OUTSIDE OF CONVERGENCE TOLERANCES.

 AVERAGE FORCE                      1.028E-02   TIME AVG. FORCE       3.153E-03
 LARGEST RESIDUAL FORCE            -1.632E-02   AT NODE          5   DOF  3
 LARGEST INCREMENT OF DISP.        -0.140       AT NODE          9   DOF  3
 LARGEST CORRECTION TO DISP.        4.041E-02   AT NODE         17   DOF  3
          FORCE     EQUILIBRIUM NOT ACHIEVED WITHIN TOLERANCE.

 AVERAGE MOMENT                     4.453E-03   TIME AVG. MOMENT      2.293E-03
 LARGEST RESIDUAL MOMENT            4.054E-16   AT NODE         17   DOF  5
 LARGEST INCREMENT OF ROTATION      8.707E-02   AT NODE         10   DOF  4
 LARGEST CORRECTION TO ROTATION    -3.107E-02   AT NODE         14   DOF  5
          THE MOMENT    EQUILIBRIUM RESPONSE WAS LINEAR IN THIS INCREMENT

  NUMBER OF EQUATIONS =        78     NUMBER OF RHS =    1
  NUMBER OF FLOATING PT. OPERATIONS =  2.00E+05

     CHECK POINT   START OF SOLVER    

     CHECK POINT  END OF SOLVER       

       ELAPSED USER TIME (SEC)      =   0.0000    
       ELAPSED SYSTEM TIME (SEC)    =   0.0000    
       ELAPSED TOTAL CPU TIME (SEC) =   0.0000    
       ELAPSED WALLCLOCK TIME (SEC) =          0
 

 ***WARNING: THE SYSTEM MATRIX HAS 2 NEGATIVE EIGENVALUES.
             EXPLANATIONS ARE SUGGESTED AFTER THE FIRST OCCURRENCE OF THIS MESSAGE.

               CONVERGENCE CHECKS FOR EQUILIBRIUM ITERATION     4

   MAX. PENETRATION ERROR 6.49048E-06 AT NODE 13 OF CONTACT PAIR 
   (BOTSURFTABLE,EXTSURFCUBE)
   MAX. CONTACT FORCE ERROR 2.48949E-03 AT NODE 13 OF CONTACT PAIR 
   (BOTSURFTABLE,EXTSURFCUBE)
          THE CONTACT CONSTRAINTS HAVE CONVERGED.

 AVERAGE FORCE                      1.112E-02   TIME AVG. FORCE       3.246E-03
 LARGEST RESIDUAL FORCE            -1.145E-02   AT NODE          6   DOF  3
 LARGEST INCREMENT OF DISP.        -0.161       AT NODE          9   DOF  3
 LARGEST CORRECTION TO DISP.        2.219E-02   AT NODE         17   DOF  3
          FORCE     EQUILIBRIUM NOT ACHIEVED WITHIN TOLERANCE.

 AVERAGE MOMENT                     4.429E-03   TIME AVG. MOMENT      2.291E-03
 LARGEST RESIDUAL MOMENT           -3.417E-16   AT NODE         13   DOF  4
 LARGEST INCREMENT OF ROTATION      9.615E-02   AT NODE         10   DOF  4
 LARGEST CORRECTION TO ROTATION    -1.399E-02   AT NODE         12   DOF  5
          THE MOMENT    EQUILIBRIUM EQUATIONS HAVE CONVERGED

  NUMBER OF EQUATIONS =        78     NUMBER OF RHS =    1
  NUMBER OF FLOATING PT. OPERATIONS =  2.00E+05

     CHECK POINT   START OF SOLVER    

     CHECK POINT  END OF SOLVER       

       ELAPSED USER TIME (SEC)      =   0.0000    
       ELAPSED SYSTEM TIME (SEC)    =   0.0000    
       ELAPSED TOTAL CPU TIME (SEC) =   0.0000    
       ELAPSED WALLCLOCK TIME (SEC) =          0
 

 ***WARNING: THE SYSTEM MATRIX HAS 2 NEGATIVE EIGENVALUES.
             EXPLANATIONS ARE SUGGESTED AFTER THE FIRST OCCURRENCE OF THIS MESSAGE.

               CONVERGENCE CHECKS FOR EQUILIBRIUM ITERATION     5

   MAX. PENETRATION ERROR 13.5384E-06  AT NODE 13 OF CONTACT PAIR 
   (BOTSURFTABLE,EXTSURFCUBE)
   MAX. CONTACT FORCE ERROR 5.20214E-03 AT NODE 13 OF CONTACT PAIR 
   (BOTSURFTABLE,EXTSURFCUBE)
          THE ESTIMATED CONTACT FORCE ERROR IS OUTSIDE OF CONVERGENCE TOLERANCES.

 AVERAGE FORCE                      1.158E-02   TIME AVG. FORCE       3.298E-03
 LARGEST RESIDUAL FORCE            -1.160E-02   AT NODE          6   DOF  3
 LARGEST INCREMENT OF DISP.        -0.181       AT NODE          9   DOF  3
 LARGEST CORRECTION TO DISP.        2.389E-02   AT NODE         17   DOF  3
          FORCE     EQUILIBRIUM NOT ACHIEVED WITHIN TOLERANCE.

 AVERAGE MOMENT                     4.481E-03   TIME AVG. MOMENT      2.297E-03
 LARGEST RESIDUAL MOMENT            2.047E-16   AT NODE         13   DOF  4
 LARGEST INCREMENT OF ROTATION      0.111       AT NODE         10   DOF  4
 LARGEST CORRECTION TO ROTATION     1.660E-02   AT NODE         11   DOF  4
          THE MOMENT    EQUILIBRIUM EQUATIONS HAVE CONVERGED

  NUMBER OF EQUATIONS =        78     NUMBER OF RHS =    1
  NUMBER OF FLOATING PT. OPERATIONS =  2.00E+05

     CHECK POINT   START OF SOLVER    

     CHECK POINT  END OF SOLVER       

       ELAPSED USER TIME (SEC)      =   0.0000    
       ELAPSED SYSTEM TIME (SEC)    =   0.0000    
       ELAPSED TOTAL CPU TIME (SEC) =   0.0000    
       ELAPSED WALLCLOCK TIME (SEC) =          0
 

 ***WARNING: THE SYSTEM MATRIX HAS 2 NEGATIVE EIGENVALUES.
             EXPLANATIONS ARE SUGGESTED AFTER THE FIRST OCCURRENCE OF THIS MESSAGE.

               CONVERGENCE CHECKS FOR EQUILIBRIUM ITERATION     6

   MAX. PENETRATION ERROR 28.1719E-06  AT NODE 13 OF CONTACT PAIR 
   (BOTSURFTABLE,EXTSURFCUBE)
   MAX. CONTACT FORCE ERROR 10.8528E-03  AT NODE 13 OF CONTACT PAIR 
   (BOTSURFTABLE,EXTSURFCUBE)
          THE ESTIMATED CONTACT FORCE ERROR IS OUTSIDE OF CONVERGENCE TOLERANCES.

 AVERAGE FORCE                      1.218E-02   TIME AVG. FORCE       3.364E-03
 LARGEST RESIDUAL FORCE            -1.197E-02   AT NODE          6   DOF  3
 LARGEST INCREMENT OF DISP.        -0.206       AT NODE          9   DOF  3
 LARGEST CORRECTION TO DISP.        2.875E-02   AT NODE         17   DOF  3
          FORCE     EQUILIBRIUM NOT ACHIEVED WITHIN TOLERANCE.

 AVERAGE MOMENT                     4.579E-03   TIME AVG. MOMENT      2.307E-03
 LARGEST RESIDUAL MOMENT           -2.619E-16   AT NODE         13   DOF  4
 LARGEST INCREMENT OF ROTATION      0.131       AT NODE         10   DOF  4
 LARGEST CORRECTION TO ROTATION     2.320E-02   AT NODE         11   DOF  4
          THE MOMENT    EQUILIBRIUM EQUATIONS HAVE CONVERGED
 

 ***NOTE: THE SOLUTION APPEARS TO BE DIVERGING. CONVERGENCE IS JUDGED UNLIKELY.


  INCREMENT     9 STARTS. ATTEMPT NUMBER  3, TIME INCREMENT  1.187E-02

  NUMBER OF EQUATIONS =        78     NUMBER OF RHS =    1
  NUMBER OF FLOATING PT. OPERATIONS =  2.00E+05

     CHECK POINT   START OF SOLVER    

     CHECK POINT  END OF SOLVER       

       ELAPSED USER TIME (SEC)      =   0.0000    
       ELAPSED SYSTEM TIME (SEC)    =   0.0000    
       ELAPSED TOTAL CPU TIME (SEC) =   0.0000    
       ELAPSED WALLCLOCK TIME (SEC) =          0

               CONVERGENCE CHECKS FOR EQUILIBRIUM ITERATION     1

   MAX. PENETRATION ERROR -48.9834E-09  AT NODE 13 OF CONTACT PAIR 
   (BOTSURFTABLE,EXTSURFCUBE)
   MAX. CONTACT FORCE ERROR -18.6796E-06  AT NODE 13 OF CONTACT PAIR 
   (BOTSURFTABLE,EXTSURFCUBE)
          THE CONTACT CONSTRAINTS HAVE CONVERGED.

 AVERAGE FORCE                      6.402E-03   TIME AVG. FORCE       2.722E-03
 LARGEST RESIDUAL FORCE             9.264E-04   AT NODE         13   DOF  3
 LARGEST INCREMENT OF DISP.        -1.221E-03   AT NODE          9   DOF  3
 LARGEST CORRECTION TO DISP.       -1.221E-03   AT NODE          9   DOF  3
          FORCE     EQUILIBRIUM NOT ACHIEVED WITHIN TOLERANCE.

 AVERAGE MOMENT                     4.439E-03   TIME AVG. MOMENT      2.292E-03
 LARGEST RESIDUAL MOMENT            5.551E-17   AT NODE         13   DOF  4
 LARGEST INCREMENT OF ROTATION      2.107E-03   AT NODE         10   DOF  4
 LARGEST CORRECTION TO ROTATION     2.107E-03   AT NODE         10   DOF  4
          THE MOMENT    EQUILIBRIUM RESPONSE WAS LINEAR IN THIS INCREMENT

  NUMBER OF EQUATIONS =        78     NUMBER OF RHS =    1
  NUMBER OF FLOATING PT. OPERATIONS =  2.00E+05

     CHECK POINT   START OF SOLVER    

     CHECK POINT  END OF SOLVER       

       ELAPSED USER TIME (SEC)      =   0.0000    
       ELAPSED SYSTEM TIME (SEC)    =   0.0000    
       ELAPSED TOTAL CPU TIME (SEC) =   0.0000    
[...]
 LARGEST CORRECTION TO ROTATION     2.422E-02   AT NODE         15   DOF  5
          THE MOMENT    EQUILIBRIUM RESPONSE WAS LINEAR IN THIS INCREMENT

  NUMBER OF EQUATIONS =        78     NUMBER OF RHS =    1
  NUMBER OF FLOATING PT. OPERATIONS =  2.00E+05

     CHECK POINT   START OF SOLVER    

     CHECK POINT  END OF SOLVER       

       ELAPSED USER TIME (SEC)      =   0.0000    
       ELAPSED SYSTEM TIME (SEC)    =   0.0000    
       ELAPSED TOTAL CPU TIME (SEC) =   0.0000    
       ELAPSED WALLCLOCK TIME (SEC) =          0
 

 ***WARNING: THE SYSTEM MATRIX HAS 2 NEGATIVE EIGENVALUES.
             EXPLANATIONS ARE SUGGESTED AFTER THE FIRST OCCURRENCE OF THIS MESSAGE.

               CONVERGENCE CHECKS FOR EQUILIBRIUM ITERATION     5

   MAX. PENETRATION ERROR 2.71081E-06 AT NODE 13 OF CONTACT PAIR 
   (BOTSURFTABLE,EXTSURFCUBE)
   MAX. CONTACT FORCE ERROR 1.03885E-03 AT NODE 13 OF CONTACT PAIR 
   (BOTSURFTABLE,EXTSURFCUBE)
          THE CONTACT CONSTRAINTS HAVE CONVERGED.

 AVERAGE FORCE                      9.962E-03   TIME AVG. FORCE       3.118E-03
 LARGEST RESIDUAL FORCE            -1.379E-02   AT NODE          8   DOF  3
 LARGEST INCREMENT OF DISP.        -0.148       AT NODE         17   DOF  3
 LARGEST CORRECTION TO DISP.        3.047E-02   AT NODE          9   DOF  3
          FORCE     EQUILIBRIUM NOT ACHIEVED WITHIN TOLERANCE.

 AVERAGE MOMENT                     4.168E-03   TIME AVG. MOMENT      2.262E-03
 LARGEST RESIDUAL MOMENT           -1.756E-16   AT NODE         14   DOF  5
 LARGEST INCREMENT OF ROTATION      8.313E-02   AT NODE         14   DOF  5
 LARGEST CORRECTION TO ROTATION    -1.716E-02   AT NODE         11   DOF  4
          THE MOMENT    EQUILIBRIUM EQUATIONS HAVE CONVERGED

  NUMBER OF EQUATIONS =        78     NUMBER OF RHS =    1
  NUMBER OF FLOATING PT. OPERATIONS =  2.00E+05

     CHECK POINT   START OF SOLVER    

     CHECK POINT  END OF SOLVER       

       ELAPSED USER TIME (SEC)      =   0.0000    
       ELAPSED SYSTEM TIME (SEC)    =   0.0000    
       ELAPSED TOTAL CPU TIME (SEC) =   0.0000    
       ELAPSED WALLCLOCK TIME (SEC) =          0
 

 ***WARNING: THE SYSTEM MATRIX HAS 2 NEGATIVE EIGENVALUES.
             EXPLANATIONS ARE SUGGESTED AFTER THE FIRST OCCURRENCE OF THIS MESSAGE.

               CONVERGENCE CHECKS FOR EQUILIBRIUM ITERATION     6

   MAX. PENETRATION ERROR 10.9940E-06  AT NODE 13 OF CONTACT PAIR 
   (BOTSURFTABLE,EXTSURFCUBE)
   MAX. CONTACT FORCE ERROR 4.21925E-03 AT NODE 13 OF CONTACT PAIR 
   (BOTSURFTABLE,EXTSURFCUBE)
          THE ESTIMATED CONTACT FORCE ERROR IS OUTSIDE OF CONVERGENCE TOLERANCES.

 AVERAGE FORCE                      1.079E-02   TIME AVG. FORCE       3.209E-03
 LARGEST RESIDUAL FORCE            -1.026E-02   AT NODE          8   DOF  3
 LARGEST INCREMENT OF DISP.        -0.168       AT NODE         17   DOF  3
 LARGEST CORRECTION TO DISP.       -1.977E-02   AT NODE         17   DOF  3
          FORCE     EQUILIBRIUM NOT ACHIEVED WITHIN TOLERANCE.

 AVERAGE MOMENT                     4.182E-03   TIME AVG. MOMENT      2.263E-03
 LARGEST RESIDUAL MOMENT            2.151E-16   AT NODE         13   DOF  5
 LARGEST INCREMENT OF ROTATION      9.373E-02   AT NODE         14   DOF  5
 LARGEST CORRECTION TO ROTATION     1.060E-02   AT NODE         14   DOF  5
          THE MOMENT    EQUILIBRIUM EQUATIONS HAVE CONVERGED

  NUMBER OF EQUATIONS =        78     NUMBER OF RHS =    1
  NUMBER OF FLOATING PT. OPERATIONS =  2.00E+05

     CHECK POINT   START OF SOLVER    

     CHECK POINT  END OF SOLVER       

       ELAPSED USER TIME (SEC)      =   0.0000    
       ELAPSED SYSTEM TIME (SEC)    =   0.0000    
       ELAPSED TOTAL CPU TIME (SEC) =   0.0000    
       ELAPSED WALLCLOCK TIME (SEC) =          0
 

 ***WARNING: THE SYSTEM MATRIX HAS 2 NEGATIVE EIGENVALUES.
             EXPLANATIONS ARE SUGGESTED AFTER THE FIRST OCCURRENCE OF THIS MESSAGE.

               CONVERGENCE CHECKS FOR EQUILIBRIUM ITERATION     7

   MAX. PENETRATION ERROR 20.5220E-06  AT NODE 13 OF CONTACT PAIR 
   (BOTSURFTABLE,EXTSURFCUBE)
   MAX. CONTACT FORCE ERROR 7.89263E-03 AT NODE 13 OF CONTACT PAIR 
   (BOTSURFTABLE,EXTSURFCUBE)
          THE ESTIMATED CONTACT FORCE ERROR IS OUTSIDE OF CONVERGENCE TOLERANCES.

 AVERAGE FORCE                      1.131E-02   TIME AVG. FORCE       3.268E-03
 LARGEST RESIDUAL FORCE            -1.131E-02   AT NODE          8   DOF  3
 LARGEST INCREMENT OF DISP.        -0.190       AT NODE         17   DOF  3
 LARGEST CORRECTION TO DISP.        2.629E-02   AT NODE          9   DOF  3
          FORCE     EQUILIBRIUM NOT ACHIEVED WITHIN TOLERANCE.

 AVERAGE MOMENT                     4.244E-03   TIME AVG. MOMENT      2.270E-03
 LARGEST RESIDUAL MOMENT            3.903E-16   AT NODE         13   DOF  4
 LARGEST INCREMENT OF ROTATION      0.109       AT NODE         14   DOF  5
 LARGEST CORRECTION TO ROTATION    -1.756E-02   AT NODE         15   DOF  4
          THE MOMENT    EQUILIBRIUM EQUATIONS HAVE CONVERGED

  NUMBER OF EQUATIONS =        78     NUMBER OF RHS =    1
  NUMBER OF FLOATING PT. OPERATIONS =  2.00E+05

     CHECK POINT   START OF SOLVER    

     CHECK POINT  END OF SOLVER       

       ELAPSED USER TIME (SEC)      =   0.0000    
       ELAPSED SYSTEM TIME (SEC)    =   0.0000    
       ELAPSED TOTAL CPU TIME (SEC) =   0.0000    
       ELAPSED WALLCLOCK TIME (SEC) =          0
 

 ***WARNING: THE SYSTEM MATRIX HAS 2 NEGATIVE EIGENVALUES.
             EXPLANATIONS ARE SUGGESTED AFTER THE FIRST OCCURRENCE OF THIS MESSAGE.

               CONVERGENCE CHECKS FOR EQUILIBRIUM ITERATION     8

   MAX. PENETRATION ERROR 43.9410E-06  AT NODE 13 OF CONTACT PAIR 
   (BOTSURFTABLE,EXTSURFCUBE)
   MAX. CONTACT FORCE ERROR 16.9624E-03  AT NODE 13 OF CONTACT PAIR 
   (BOTSURFTABLE,EXTSURFCUBE)
          THE ESTIMATED CONTACT FORCE ERROR IS OUTSIDE OF CONVERGENCE TOLERANCES.

 AVERAGE FORCE                      1.230E-02   TIME AVG. FORCE       3.377E-03
 LARGEST RESIDUAL FORCE            -1.362E-02   AT NODE          8   DOF  3
 LARGEST INCREMENT OF DISP.        -0.224       AT NODE         17   DOF  3
 LARGEST CORRECTION TO DISP.        3.905E-02   AT NODE          9   DOF  3
          FORCE     EQUILIBRIUM NOT ACHIEVED WITHIN TOLERANCE.

 AVERAGE MOMENT                     4.418E-03   TIME AVG. MOMENT      2.289E-03
 LARGEST RESIDUAL MOMENT           -3.383E-16   AT NODE         13   DOF  4
 LARGEST INCREMENT OF ROTATION     -0.132       AT NODE         16   DOF  4
 LARGEST CORRECTION TO ROTATION    -2.768E-02   AT NODE         15   DOF  4
          THE MOMENT    EQUILIBRIUM EQUATIONS HAVE CONVERGED
 

 ***NOTE: THE SOLUTION APPEARS TO BE DIVERGING. CONVERGENCE IS JUDGED UNLIKELY.


  INCREMENT     9 STARTS. ATTEMPT NUMBER  4, TIME INCREMENT  2.966E-03

  NUMBER OF EQUATIONS =        78     NUMBER OF RHS =    1
  NUMBER OF FLOATING PT. OPERATIONS =  2.00E+05

     CHECK POINT   START OF SOLVER    

     CHECK POINT  END OF SOLVER       

       ELAPSED USER TIME (SEC)      =   0.0000    
       ELAPSED SYSTEM TIME (SEC)    =   0.0000    
       ELAPSED TOTAL CPU TIME (SEC) =   0.0000    
       ELAPSED WALLCLOCK TIME (SEC) =          0

               CONVERGENCE CHECKS FOR EQUILIBRIUM ITERATION     1

   MAX. PENETRATION ERROR 13.5790E-09  AT NODE 10 OF CONTACT PAIR 
   (BOTSURFTABLE,EXTSURFCUBE)
   MAX. CONTACT FORCE ERROR -1.19352E-06 AT NODE 13 OF CONTACT PAIR 
   (BOTSURFTABLE,EXTSURFCUBE)
          THE CONTACT CONSTRAINTS HAVE CONVERGED.

 AVERAGE FORCE                      6.282E-03   TIME AVG. FORCE       2.709E-03
 LARGEST RESIDUAL FORCE             2.317E-04   AT NODE         13   DOF  3
 LARGEST INCREMENT OF DISP.        -3.435E-04   AT NODE          9   DOF  3
 LARGEST CORRECTION TO DISP.       -3.435E-04   AT NODE          9   DOF  3
          FORCE     EQUILIBRIUM NOT ACHIEVED WITHIN TOLERANCE.

 AVERAGE MOMENT                     4.088E-03   TIME AVG. MOMENT      2.253E-03
 LARGEST RESIDUAL MOMENT            4.100E-17   AT NODE         10   DOF  4
 LARGEST INCREMENT OF ROTATION      5.539E-04   AT NODE         10   DOF  4
 LARGEST CORRECTION TO ROTATION     5.539E-04   AT NODE         10   DOF  4
          THE MOMENT    EQUILIBRIUM RESPONSE WAS LINEAR IN THIS INCREMENT

  NUMBER OF EQUATIONS =        78     NUMBER OF RHS =    1
  NUMBER OF FLOATING PT. OPERATIONS =  2.00E+05

     CHECK POINT   START OF SOLVER    

     CHECK POINT  END OF SOLVER       

       ELAPSED USER TIME (SEC)      =   0.0000    
       ELAPSED SYSTEM TIME (SEC)    =   0.0000    
       ELAPSED TOTAL CPU TIME (SEC) =   0.0000    
       ELAPSED WALLCLOCK TIME (SEC) =          0

               CONVERGENCE CHECKS FOR EQUILIBRIUM ITERATION     2

   MAX. PENETRATION ERROR -20.9361E-09  AT NODE 10 OF CONTACT PAIR 
   (BOTSURFTABLE,EXTSURFCUBE)
   MAX. CONTACT FORCE ERROR -1.33028E-06 AT NODE 10 OF CONTACT PAIR 
   (BOTSURFTABLE,EXTSURFCUBE)
          THE CONTACT CONSTRAINTS HAVE CONVERGED.

 AVERAGE FORCE                      6.125E-03   TIME AVG. FORCE       2.691E-03
 LARGEST RESIDUAL FORCE             2.169E-04   AT NODE          5   DOF  3
 LARGEST INCREMENT OF DISP.        -5.560E-04   AT NODE         17   DOF  3
 LARGEST CORRECTION TO DISP.        4.613E-04   AT NODE          9   DOF  3
          FORCE     EQUILIBRIUM NOT ACHIEVED WITHIN TOLERANCE.

 AVERAGE MOMENT                     3.841E-03   TIME AVG. MOMENT      2.225E-03
 LARGEST RESIDUAL MOMENT           -9.888E-17   AT NODE         13   DOF  5
 LARGEST INCREMENT OF ROTATION     -5.369E-04   AT NODE         16   DOF  4
 LARGEST CORRECTION TO ROTATION    -4.198E-04   AT NODE         10   DOF  4
          THE MOMENT    EQUILIBRIUM EQUATIONS HAVE CONVERGED

  NUMBER OF EQUATIONS =        78     NUMBER OF RHS =    1
  NUMBER OF FLOATING PT. OPERATIONS =  2.00E+05

     CHECK POINT   START OF SOLVER    

     CHECK POINT  END OF SOLVER       

       ELAPSED USER TIME (SEC)      =   0.0000    
       ELAPSED SYSTEM TIME (SEC)    =   0.0000    
       ELAPSED TOTAL CPU TIME (SEC) =   0.0000    
       ELAPSED WALLCLOCK TIME (SEC) =          0

               CONVERGENCE CHECKS FOR EQUILIBRIUM ITERATION     3

   MAX. PENETRATION ERROR -160.259E-09   AT NODE 16 OF CONTACT PAIR 
   (BOTSURFTABLE,EXTSURFCUBE)
   MAX. CONTACT FORCE ERROR -10.1823E-06  AT NODE 16 OF CONTACT PAIR 
   (BOTSURFTABLE,EXTSURFCUBE)
          THE CONTACT CONSTRAINTS HAVE CONVERGED.

 AVERAGE FORCE                      6.131E-03   TIME AVG. FORCE       2.692E-03
 LARGEST RESIDUAL FORCE             1.272E-03   AT NODE          7   DOF  3
 LARGEST INCREMENT OF DISP.        -2.982E-03   AT NODE          9   DOF  3
 LARGEST CORRECTION TO DISP.       -3.100E-03   AT NODE          9   DOF  3
          FORCE     EQUILIBRIUM NOT ACHIEVED WITHIN TOLERANCE.

 AVERAGE MOMENT                     3.630E-03   TIME AVG. MOMENT      2.202E-03
 LARGEST RESIDUAL MOMENT            8.674E-17   AT NODE         13   DOF  4
 LARGEST INCREMENT OF ROTATION      2.105E-03   AT NODE          9   DOF  4
 LARGEST CORRECTION TO ROTATION     2.078E-03   AT NODE         17   DOF  4
          THE MOMENT    EQUILIBRIUM EQUATIONS HAVE CONVERGED

  NUMBER OF EQUATIONS =        78     NUMBER OF RHS =    1
  NUMBER OF FLOATING PT. OPERATIONS =  2.00E+05

     CHECK POINT   START OF SOLVER    

     CHECK POINT  END OF SOLVER       

       ELAPSED USER TIME (SEC)      =   0.0000    
       ELAPSED SYSTEM TIME (SEC)    =   0.0000    
       ELAPSED TOTAL CPU TIME (SEC) =   0.0000    
       ELAPSED WALLCLOCK TIME (SEC) =          0

               CONVERGENCE CHECKS FOR EQUILIBRIUM ITERATION     4

   MAX. PENETRATION ERROR -1.66778E-06 AT NODE 13 OF CONTACT PAIR 
   (BOTSURFTABLE,EXTSURFCUBE)
   MAX. CONTACT FORCE ERROR -636.030E-06   AT NODE 13 OF CONTACT PAIR 
   (BOTSURFTABLE,EXTSURFCUBE)
          THE CONTACT CONSTRAINTS HAVE CONVERGED.

 AVERAGE FORCE                      6.170E-03   TIME AVG. FORCE       2.696E-03
 LARGEST RESIDUAL FORCE             1.166E-02   AT NODE          5   DOF  3
 LARGEST INCREMENT OF DISP.         2.394E-02   AT NODE          9   DOF  3
 LARGEST CORRECTION TO DISP.        2.692E-02   AT NODE          9   DOF  3
          FORCE     EQUILIBRIUM NOT ACHIEVED WITHIN TOLERANCE.

 AVERAGE MOMENT                     3.609E-03   TIME AVG. MOMENT      2.200E-03
 LARGEST RESIDUAL MOMENT            8.565E-17   AT NODE         17   DOF  5
 LARGEST INCREMENT OF ROTATION     -1.654E-02   AT NODE          9   DOF  4
 LARGEST CORRECTION TO ROTATION    -1.865E-02   AT NODE          9   DOF  4
          THE MOMENT    EQUILIBRIUM EQUATIONS HAVE CONVERGED
 

 ***NOTE: THE SOLUTION APPEARS TO BE DIVERGING. CONVERGENCE IS JUDGED UNLIKELY.


  INCREMENT     9 STARTS. ATTEMPT NUMBER  5, TIME INCREMENT  7.416E-04

  NUMBER OF EQUATIONS =        78     NUMBER OF RHS =    1
  NUMBER OF FLOATING PT. OPERATIONS =  2.00E+05

     CHECK POINT   START OF SOLVER    

     CHECK POINT  END OF SOLVER       

       ELAPSED USER TIME (SEC)      =   0.0000    
       ELAPSED SYSTEM TIME (SEC)    =   0.0000    
       ELAPSED TOTAL CPU TIME (SEC) =   0.0000    
       ELAPSED WALLCLOCK TIME (SEC) =          0

               CONVERGENCE CHECKS FOR EQUILIBRIUM ITERATION     1

   MAX. PENETRATION ERROR 5.17362E-09 AT NODE 10 OF CONTACT PAIR 
   (BOTSURFTABLE,EXTSURFCUBE)
   MAX. CONTACT FORCE ERROR 328.732E-09   AT NODE 10 OF CONTACT PAIR 
   (BOTSURFTABLE,EXTSURFCUBE)
          THE CONTACT CONSTRAINTS HAVE CONVERGED.

 AVERAGE FORCE                      6.252E-03   TIME AVG. FORCE       2.705E-03
 LARGEST RESIDUAL FORCE            -6.509E-05   AT NODE          5   DOF  3
 LARGEST INCREMENT OF DISP.        -1.240E-04   AT NODE          9   DOF  3
 LARGEST CORRECTION TO DISP.       -1.240E-04   AT NODE          9   DOF  3
          FORCE     EQUILIBRIUM NOT ACHIEVED WITHIN TOLERANCE.

 AVERAGE MOMENT                     4.070E-03   TIME AVG. MOMENT      2.251E-03
 LARGEST RESIDUAL MOMENT           -4.188E-17   AT NODE         14   DOF  5
 LARGEST INCREMENT OF ROTATION      1.657E-04   AT NODE         10   DOF  4
 LARGEST CORRECTION TO ROTATION     1.657E-04   AT NODE         10   DOF  4
          THE MOMENT    EQUILIBRIUM RESPONSE WAS LINEAR IN THIS INCREMENT

  NUMBER OF EQUATIONS =        78     NUMBER OF RHS =    1
  NUMBER OF FLOATING PT. OPERATIONS =  2.00E+05

     CHECK POINT   START OF SOLVER    

     CHECK POINT  END OF SOLVER       

       ELAPSED USER TIME (SEC)      =   0.0000    
       ELAPSED SYSTEM TIME (SEC)    =   0.0000    
       ELAPSED TOTAL CPU TIME (SEC) =   0.0000    
       ELAPSED WALLCLOCK TIME (SEC) =          0

               CONVERGENCE CHECKS FOR EQUILIBRIUM ITERATION     2

   MAX. PENETRATION ERROR -19.1409E-09  AT NODE 10 OF CONTACT PAIR 
   (BOTSURFTABLE,EXTSURFCUBE)
   MAX. CONTACT FORCE ERROR -1.21620E-06 AT NODE 10 OF CONTACT PAIR 
   (BOTSURFTABLE,EXTSURFCUBE)
          THE CONTACT CONSTRAINTS HAVE CONVERGED.

 AVERAGE FORCE                      6.102E-03   TIME AVG. FORCE       2.689E-03
 LARGEST RESIDUAL FORCE             1.681E-04   AT NODE          5   DOF  3
 LARGEST INCREMENT OF DISP.        -3.819E-04   AT NODE         17   DOF  3
 LARGEST CORRECTION TO DISP.        3.935E-04   AT NODE          9   DOF  3
          FORCE     EQUILIBRIUM NOT ACHIEVED WITHIN TOLERANCE.

 AVERAGE MOMENT                     3.829E-03   TIME AVG. MOMENT      2.224E-03
 LARGEST RESIDUAL MOMENT            7.551E-17   AT NODE         14   DOF  5
 LARGEST INCREMENT OF ROTATION     -2.835E-04   AT NODE         17   DOF  4
 LARGEST CORRECTION TO ROTATION    -2.724E-04   AT NODE         10   DOF  4
          THE MOMENT    EQUILIBRIUM EQUATIONS HAVE CONVERGED

  NUMBER OF EQUATIONS =        78     NUMBER OF RHS =    1
  NUMBER OF FLOATING PT. OPERATIONS =  2.00E+05

     CHECK POINT   START OF SOLVER    

     CHECK POINT  END OF SOLVER       

       ELAPSED USER TIME (SEC)      =   0.0000    
       ELAPSED SYSTEM TIME (SEC)    =   0.0000    
       ELAPSED TOTAL CPU TIME (SEC) =   0.0000    
       ELAPSED WALLCLOCK TIME (SEC) =          0

               CONVERGENCE CHECKS FOR EQUILIBRIUM ITERATION     3

   MAX. PENETRATION ERROR -150.479E-09   AT NODE 16 OF CONTACT PAIR 
   (BOTSURFTABLE,EXTSURFCUBE)
   MAX. CONTACT FORCE ERROR -9.56082E-06 AT NODE 16 OF CONTACT PAIR 
   (BOTSURFTABLE,EXTSURFCUBE)
          THE CONTACT CONSTRAINTS HAVE CONVERGED.

 AVERAGE FORCE                      6.106E-03   TIME AVG. FORCE       2.689E-03
 LARGEST RESIDUAL FORCE             1.209E-03   AT NODE          7   DOF  3
 LARGEST INCREMENT OF DISP.        -2.645E-03   AT NODE          9   DOF  3
 LARGEST CORRECTION TO DISP.        2.924E-03   AT NODE         17   DOF  3
          FORCE     EQUILIBRIUM NOT ACHIEVED WITHIN TOLERANCE.

 AVERAGE MOMENT                     3.617E-03   TIME AVG. MOMENT      2.201E-03
 LARGEST RESIDUAL MOMENT           -7.332E-17   AT NODE         14   DOF  5
 LARGEST INCREMENT OF ROTATION      1.798E-03   AT NODE          9   DOF  4
 LARGEST CORRECTION TO ROTATION     1.973E-03   AT NODE         17   DOF  4
          THE MOMENT    EQUILIBRIUM EQUATIONS HAVE CONVERGED

  NUMBER OF EQUATIONS =        78     NUMBER OF RHS =    1
  NUMBER OF FLOATING PT. OPERATIONS =  2.00E+05

     CHECK POINT   START OF SOLVER    

     CHECK POINT  END OF SOLVER       

       ELAPSED USER TIME (SEC)      =   0.0000    
       ELAPSED SYSTEM TIME (SEC)    =   0.0000    
       ELAPSED TOTAL CPU TIME (SEC) =   0.0000    
       ELAPSED WALLCLOCK TIME (SEC) =          0

               CONVERGENCE CHECKS FOR EQUILIBRIUM ITERATION     4

   MAX. PENETRATION ERROR -1.41026E-06 AT NODE 12 OF CONTACT PAIR 
   (BOTSURFTABLE,EXTSURFCUBE)
   MAX. CONTACT FORCE ERROR -531.552E-06   AT NODE 13 OF CONTACT PAIR 
   (BOTSURFTABLE,EXTSURFCUBE)
          THE CONTACT CONSTRAINTS HAVE CONVERGED.

 AVERAGE FORCE                      6.133E-03   TIME AVG. FORCE       2.692E-03
 LARGEST RESIDUAL FORCE             1.058E-02   AT NODE          5   DOF  3
 LARGEST INCREMENT OF DISP.         2.183E-02   AT NODE          9   DOF  3
 LARGEST CORRECTION TO DISP.        2.448E-02   AT NODE          9   DOF  3
          FORCE     EQUILIBRIUM NOT ACHIEVED WITHIN TOLERANCE.

 AVERAGE MOMENT                     3.600E-03   TIME AVG. MOMENT      2.199E-03
 LARGEST RESIDUAL MOMENT           -1.436E-16   AT NODE         16   DOF  4
 LARGEST INCREMENT OF ROTATION     -1.512E-02   AT NODE          9   DOF  4
 LARGEST CORRECTION TO ROTATION    -1.691E-02   AT NODE          9   DOF  4
          THE MOMENT    EQUILIBRIUM EQUATIONS HAVE CONVERGED
 

 ***NOTE: THE SOLUTION APPEARS TO BE DIVERGING. CONVERGENCE IS JUDGED UNLIKELY.
 

 ***ERROR: TOO MANY ATTEMPTS MADE FOR THIS INCREMENT

 ***ERROR: THE ANALYSIS HAS BEEN TERMINATED DUE TO PREVIOUS ERRORS. ALL OUTPUT 
           REQUESTS HAVE BEEN WRITTEN FOR THE LAST CONVERGED INCREMENT.



     ANALYSIS SUMMARY:
     TOTAL OF          9  INCREMENTS
                       6  CUTBACKS IN AUTOMATIC INCREMENTATION
                      62  ITERATIONS INCLUDING CONTACT ITERATIONS IF PRESENT
                      62  PASSES THROUGH THE EQUATION SOLVER OF WHICH 
                      62  INVOLVE MATRIX DECOMPOSITION, INCLUDING
                       0  DECOMPOSITION(S) OF THE MASS MATRIX
                       1  REORDERING OF EQUATIONS TO MINIMIZE WAVEFRONT
                       0  ADDITIONAL RESIDUAL EVALUATIONS FOR LINE SEARCHES
                       0  ADDITIONAL OPERATOR EVALUATIONS FOR LINE SEARCHES
                       0  WARNING MESSAGES DURING USER INPUT PROCESSING
                      21  WARNING MESSAGES DURING ANALYSIS
                       2  ANALYSIS WARNINGS ARE NUMERICAL PROBLEM MESSAGES
                      19  ANALYSIS WARNINGS ARE NEGATIVE EIGENVALUE MESSAGES
                       2  ERROR MESSAGES



     JOB TIME SUMMARY
       USER TIME (SEC)      =  0.80000    
       SYSTEM TIME (SEC)    =  0.30000    
       TOTAL CPU TIME (SEC) =   1.1000    
       WALLCLOCK TIME (SEC) =          1
