 Abaqus/Standard 3DEXPERIENCE R2018x                  DATE 26-Apr-2019 TIME 16:36:03
 SUMMARY OF JOB INFORMATION:
 STEP  INC ATT SEVERE EQUIL TOTAL  TOTAL      STEP       INC OF       DOF    IF
               DISCON ITERS ITERS  TIME/    TIME/LPF    TIME/LPF    MONITOR RIKS
               ITERS               FREQ
   1     1   1U    6     0     6  0.000      0.000      0.1000    
   1     1   2     1     7     8  0.0250     0.0250     0.02500   
   1     2   1     0     1     1  0.0500     0.0500     0.02500   
   1     3   1     0     1     1  0.0750     0.0750     0.02500   
   1     4   1     0     2     2  0.113      0.113      0.03750   
   1     5   1     0     2     2  0.169      0.169      0.05625   
   1     6   1     0     3     3  0.253      0.253      0.08438   
   1     7   1     0     4     4  0.380      0.380      0.1266    
   1     8   1     0     5     5  0.570      0.570      0.1898    
   1     9   1U    0     4     4  0.570      0.570      0.1898    
   1     9   2U    2     6     8  0.570      0.570      0.04746   
   1     9   3U    2     8    10  0.570      0.570      0.01187   
   1     9   4U    0     4     4  0.570      0.570      0.002966  
   1     9   5U    0     4     4  0.570      0.570      0.0007416 
                          
 THE ANALYSIS HAS NOT BEEN COMPLETED
