 Abaqus/Standard 3DEXPERIENCE R2018x                  DATE 18-Jun-2019 TIME 10:51:33
 SUMMARY OF JOB INFORMATION:
 STEP  INC ATT SEVERE EQUIL TOTAL  TOTAL      STEP       INC OF       DOF    IF
               DISCON ITERS ITERS  TIME/    TIME/LPF    TIME/LPF    MONITOR RIKS
               ITERS               FREQ
   1     1   1     0     1     1  0.0167     0.0167     0.01667   
   1     2   1     0     1     1  0.0333     0.0333     0.01667   
   1     3   1     0     1     1  0.0533     0.0533     0.02000   
   1     4   1     0     1     1  0.0733     0.0733     0.02000   
   1     5   1     0     1     1  0.0933     0.0933     0.02000   
   1     6   1     0     1     1  0.113      0.113      0.02000   
   1     7   1     0     1     1  0.133      0.133      0.02000   
   1     8   1     0     1     1  0.153      0.153      0.02000   
   1     9   1     0     1     1  0.173      0.173      0.02000   
   1    10   1     0     1     1  0.193      0.193      0.02000   
   1    11   1     0     1     1  0.213      0.213      0.02000   
   1    12   1     0     1     1  0.233      0.233      0.02000   
   1    13   1     0     1     1  0.253      0.253      0.02000   
   1    14   1     0     1     1  0.273      0.273      0.02000   
   1    15   1     0     1     1  0.293      0.293      0.02000   
   1    16   1     0     1     1  0.313      0.313      0.02000   
   1    17   1     0     1     1  0.333      0.333      0.02000   
   1    18   1     0     1     1  0.353      0.353      0.02000   
   1    19   1     0     1     1  0.373      0.373      0.02000   
   1    20   1     0     1     1  0.393      0.393      0.02000   
   1    21   1     0     1     1  0.413      0.413      0.02000   
   1    22   1     0     1     1  0.433      0.433      0.02000   
   1    23   1     0     1     1  0.453      0.453      0.02000   
   1    24   1     0     1     1  0.473      0.473      0.02000   
   1    25   1     0     1     1  0.493      0.493      0.02000   
   1    26   1     0     1     1  0.513      0.513      0.02000   
   1    27   1     0     1     1  0.533      0.533      0.02000   
   1    28   1     0     1     1  0.553      0.553      0.02000   
   1    29   1     0     1     1  0.573      0.573      0.02000   
   1    30   1     0     1     1  0.593      0.593      0.02000   
   1    31   1     0     1     1  0.613      0.613      0.02000   
   1    32   1     0     1     1  0.633      0.633      0.02000   
   1    33   1     0     1     1  0.653      0.653      0.02000   
   1    34   1     0     1     1  0.673      0.673      0.02000   
   1    35   1     0     1     1  0.693      0.693      0.02000   
   1    36   1     0     1     1  0.713      0.713      0.02000   
   1    37   1     0     1     1  0.733      0.733      0.02000   
   1    38   1     0     1     1  0.753      0.753      0.02000   
   1    39   1     0     1     1  0.773      0.773      0.02000   
   1    40   1     0     1     1  0.793      0.793      0.02000   
   1    41   1     0     1     1  0.813      0.813      0.02000   
   1    42   1     0     1     1  0.833      0.833      0.02000   
   1    43   1     0     1     1  0.853      0.853      0.02000   
   1    44   1     0     1     1  0.873      0.873      0.02000   
   1    45   1     0     1     1  0.893      0.893      0.02000   
   1    46   1     0     1     1  0.913      0.913      0.02000   
   1    47   1     0     1     1  0.933      0.933      0.02000   
   1    48   1     0     1     1  0.953      0.953      0.02000   
   1    49   1     0     1     1  0.973      0.973      0.02000   
   1    50   1     0     1     1  0.993      0.993      0.02000   
   1    51   1     0     1     1  1.00       1.00       0.006667  
   2     1   1     0     1     1  1.02       0.0167     0.01667   
   2     2   1     0     1     1  1.03       0.0333     0.01667   
   2     3   1     0     1     1  1.05       0.0533     0.02000   
   2     4   1     0     1     1  1.07       0.0733     0.02000   
   2     5   1     0     1     1  1.09       0.0933     0.02000   
   2     6   1     0     1     1  1.11       0.113      0.02000   
   2     7   1     0     1     1  1.13       0.133      0.02000   
   2     8   1     0     1     1  1.15       0.153      0.02000   
   2     9   1     0     1     1  1.17       0.173      0.02000   
   2    10   1     0     1     1  1.19       0.193      0.02000   
   2    11   1     0     1     1  1.21       0.213      0.02000   
   2    12   1     0     1     1  1.23       0.233      0.02000   
   2    13   1     0     1     1  1.25       0.253      0.02000   
   2    14   1     0     1     1  1.27       0.273      0.02000   
   2    15   1     0     1     1  1.29       0.293      0.02000   
   2    16   1     0     2     2  1.31       0.313      0.02000   
   2    17   1     0     1     1  1.33       0.333      0.02000   
   2    18   1     0     1     1  1.35       0.353      0.02000   
   2    19   1     0     1     1  1.37       0.373      0.02000   
   2    20   1     0     1     1  1.39       0.393      0.02000   
   2    21   1     0     1     1  1.41       0.413      0.02000   
   2    22   1     0     1     1  1.43       0.433      0.02000   
   2    23   1     0     1     1  1.45       0.453      0.02000   
   2    24   1     0     1     1  1.47       0.473      0.02000   
   2    25   1     0     1     1  1.49       0.493      0.02000   
   2    26   1     0     1     1  1.51       0.513      0.02000   
   2    27   1     0     1     1  1.53       0.533      0.02000   
   2    28   1     0     1     1  1.55       0.553      0.02000   
   2    29   1     0     1     1  1.57       0.573      0.02000   
   2    30   1     0     1     1  1.59       0.593      0.02000   
   2    31   1     0     1     1  1.61       0.613      0.02000   
   2    32   1     0     1     1  1.63       0.633      0.02000   
   2    33   1     0     1     1  1.65       0.653      0.02000   
   2    34   1     0     1     1  1.67       0.673      0.02000   
   2    35   1     0     1     1  1.69       0.693      0.02000   
   2    36   1     0     1     1  1.71       0.713      0.02000   
   2    37   1     0     1     1  1.73       0.733      0.02000   
   2    38   1     0     1     1  1.75       0.753      0.02000   
   2    39   1     0     1     1  1.77       0.773      0.02000   
   2    40   1     0     1     1  1.79       0.793      0.02000   
   2    41   1     0     1     1  1.81       0.813      0.02000   
   2    42   1     0     1     1  1.83       0.833      0.02000   
   2    43   1     0     1     1  1.85       0.853      0.02000   
   2    44   1     0     1     1  1.87       0.873      0.02000   
   2    45   1     0     1     1  1.89       0.893      0.02000   
   2    46   1     0     1     1  1.91       0.913      0.02000   
   2    47   1     0     1     1  1.93       0.933      0.02000   
   2    48   1     0     1     1  1.95       0.953      0.02000   
   2    49   1     0     1     1  1.97       0.973      0.02000   
   2    50   1     0     1     1  1.99       0.993      0.02000   
   2    51   1     0     1     1  2.00       1.00       0.006667  
                          
 THE ANALYSIS HAS COMPLETED SUCCESSFULLY
