1

   Abaqus 3DEXPERIENCE R2018x                                  Date 18-Jun-2019   Time 10:51:33
   For use by SIMPSON GUMPERTZ AND HEGER INC under license from Dassault Systemes or its subsidiary.

 ABAQUS Static Analysis Set                                                      
 Confinement                                                                     
 STEP    1     INCREMENT     1     STEP TIME    0.00    


                        S T E P       1     S T A T I C   A N A L Y S I S


          Confinement                                                                     

     AUTOMATIC TIME CONTROL WITH -
          A SUGGESTED INITIAL TIME INCREMENT OF                1.667E-02
          AND A TOTAL TIME PERIOD OF                            1.00    
          THE MINIMUM TIME INCREMENT ALLOWED IS                1.000E-12
          THE MAXIMUM TIME INCREMENT ALLOWED IS                2.000E-02

     LINEAR EQUATION SOLVER TYPE         DIRECT SPARSE

 CONVERGENCE TOLERANCE PARAMETERS FOR FORCE    
     CRITERION FOR RESIDUAL FORCE     FOR A NONLINEAR PROBLEM          5.000E-03
     CRITERION FOR DISP.    CORRECTION IN A NONLINEAR PROBLEM          1.000E-02
     INITIAL VALUE OF TIME AVERAGE FORCE                               1.000E-02
     AVERAGE FORCE     IS TIME AVERAGE FORCE    
     ALTERNATE CRIT. FOR RESIDUAL FORCE     FOR A NONLINEAR PROBLEM    2.000E-02
     CRITERION FOR ZERO FORCE     RELATIVE TO TIME AVRG. FORCE         1.000E-05
     CRITERION FOR RESIDUAL FORCE     WHEN THERE IS ZERO FLUX          1.000E-05
     CRITERION FOR DISP.    CORRECTION WHEN THERE IS ZERO FLUX         1.000E-03
     CRITERION FOR RESIDUAL FORCE     FOR A LINEAR INCREMENT           1.000E-08
     FIELD CONVERSION RATIO                                             1.00    
     CRITERION FOR ZERO FORCE     REL. TO TIME AVRG. MAX. FORCE        1.000E-05
     CRITERION FOR ZERO DISP.    RELATIVE TO CHARACTERISTIC LENGTH     1.000E-08

     VOLUMETRIC STRAIN COMPATIBILITY TOLERANCE FOR HYBRID SOLIDS       1.000E-05
     AXIAL STRAIN COMPATIBILITY TOLERANCE FOR HYBRID BEAMS             1.000E-05
     TRANS. SHEAR STRAIN COMPATIBILITY TOLERANCE FOR HYBRID BEAMS      1.000E-05
     SOFT CONTACT CONSTRAINT COMPATIBILITY TOLERANCE FOR P>P0          5.000E-03
     SOFT CONTACT CONSTRAINT COMPATIBILITY TOLERANCE FOR P=0.0         0.100    
     CONTACT FORCE ERROR TOLERANCE FOR CONVERT SDI=YES                 1.00    
     DISPLACEMENT COMPATIBILITY TOLERANCE FOR DCOUP ELEMENTS           1.000E-05
     ROTATION COMPATIBILITY TOLERANCE FOR DCOUP ELEMENTS               1.000E-05

 EQUILIBRIUM WILL BE CHECKED FOR SEVERE DISCONTINUITY ITERATIONS

 TIME INCREMENTATION CONTROL PARAMETERS:
     FIRST EQUILIBRIUM ITERATION FOR CONSECUTIVE DIVERGENCE CHECK              4
     EQUILIBRIUM ITERATION AT WHICH LOG. CONVERGENCE RATE CHECK BEGINS         8
     EQUILIBRIUM ITERATION AFTER WHICH ALTERNATE RESIDUAL IS USED              9
     MAXIMUM EQUILIBRIUM ITERATIONS ALLOWED                                   16
     EQUILIBRIUM ITERATION COUNT FOR CUT-BACK IN NEXT INCREMENT               10
     MAXIMUM EQUILIB. ITERS IN TWO INCREMENTS FOR TIME INCREMENT INCREASE      4
     MAXIMUM ITERATIONS FOR SEVERE DISCONTINUITIES                            50
     MAXIMUM ATTEMPTS ALLOWED IN AN INCREMENT                                  5
     MAXIMUM DISCON. ITERS IN TWO INCREMENTS FOR TIME INCREMENT INCREASE      50
     MAXIMUM CONTACT AUGMENTATIONS FOR *SURFACE BEHAVIOR,AUGMENTED LAGRANGE   50
     CUT-BACK FACTOR AFTER DIVERGENCE                                 0.2500    
     CUT-BACK FACTOR FOR TOO SLOW CONVERGENCE                         0.5000    
     CUT-BACK FACTOR AFTER TOO MANY EQUILIBRIUM ITERATIONS            0.7500    
     CUT-BACK FACTOR AFTER TOO MANY SEVERE DISCONTINUITY ITERATIONS   0.2500    
     CUT-BACK FACTOR AFTER PROBLEMS IN ELEMENT ASSEMBLY               0.2500    
     INCREASE FACTOR AFTER TWO INCREMENTS THAT CONVERGE QUICKLY        1.500    
     MAX. TIME INCREMENT INCREASE FACTOR ALLOWED                       1.500    
     MAX. TIME INCREMENT INCREASE FACTOR ALLOWED (DYNAMICS)            1.250    
     MAX. TIME INCREMENT INCREASE FACTOR ALLOWED (DIFFUSION)           2.000    
     MINIMUM TIME INCREMENT RATIO FOR EXTRAPOLATION TO OCCUR          0.1000    
     MAX. RATIO OF TIME INCREMENT TO STABILITY LIMIT                   1.000    
     FRACTION OF STABILITY LIMIT FOR NEW TIME INCREMENT               0.9500    
     TIME INCREMENT INCREASE FACTOR BEFORE A TIME POINT                1.000    
     GLOBAL STABILIZATION CONTROL IS NOT USED

          PRINT OF INCREMENT NUMBER, TIME, ETC., EVERY    1  INCREMENTS

     THE MAXIMUM NUMBER OF INCREMENTS IN THIS STEP IS                 *******

          UNSYMMETRIC MATRIX STORAGE AND SOLUTION WILL BE USED

     LINEAR EXTRAPOLATION WILL BE USED

     CHARACTERISTIC ELEMENT LENGTH      1.00    

     DETAILS REGARDING ACTUAL SOLUTION WAVEFRONT REQUESTED

     DETAILED OUTPUT OF DIAGNOSTICS TO DATABASE REQUESTED

     PRINT OF INCREMENT NUMBER, TIME, ETC., TO THE MESSAGE FILE EVERY     1  INCREMENTS

     COLLECTING MODEL CONSTRAINT INFORMATION FOR OVERCONSTRAINT CHECKS

     COLLECTING STEP CONSTRAINT INFORMATION FOR OVERCONSTRAINT CHECKS


  INCREMENT     1 STARTS. ATTEMPT NUMBER  1, TIME INCREMENT  1.667E-02

  NUMBER OF EQUATIONS =        24     NUMBER OF RHS =    1
  NUMBER OF FLOATING PT. OPERATIONS =  9.25E+03

     CHECK POINT   START OF SOLVER    

     CHECK POINT  END OF SOLVER       

       ELAPSED USER TIME (SEC)      =   0.0000    
       ELAPSED SYSTEM TIME (SEC)    =   0.0000    
       ELAPSED TOTAL CPU TIME (SEC) =   0.0000    
       ELAPSED WALLCLOCK TIME (SEC) =          0

               CONVERGENCE CHECKS FOR EQUILIBRIUM ITERATION     1


 AVERAGE FORCE                      2.083E-02   TIME AVG. FORCE       2.083E-02
 LARGEST RESIDUAL FORCE            -6.939E-18   AT NODE          4   DOF  2
 LARGEST INCREMENT OF DISP.        -3.333E-04   AT NODE          6   DOF  1
 LARGEST CORRECTION TO DISP.       -3.333E-04   AT NODE          6   DOF  1
          THE FORCE     EQUILIBRIUM RESPONSE WAS LINEAR IN THIS INCREMENT

 ITERATION SUMMARY FOR THE INCREMENT:   1 TOTAL ITERATIONS, OF WHICH
   0 ARE SEVERE DISCONTINUITY ITERATIONS AND  1 ARE EQUILIBRIUM ITERATIONS.

 TIME INCREMENT COMPLETED  1.667E-02,  FRACTION OF STEP COMPLETED  1.667E-02
 STEP TIME COMPLETED       1.667E-02,  TOTAL TIME COMPLETED        1.667E-02


  INCREMENT     2 STARTS. ATTEMPT NUMBER  1, TIME INCREMENT  1.667E-02

  NUMBER OF EQUATIONS =        24     NUMBER OF RHS =    1
  NUMBER OF FLOATING PT. OPERATIONS =  9.25E+03

     CHECK POINT   START OF SOLVER    

     CHECK POINT  END OF SOLVER       

       ELAPSED USER TIME (SEC)      =   0.0000    
       ELAPSED SYSTEM TIME (SEC)    =   0.0000    
       ELAPSED TOTAL CPU TIME (SEC) =   0.0000    
       ELAPSED WALLCLOCK TIME (SEC) =          0

               CONVERGENCE CHECKS FOR EQUILIBRIUM ITERATION     1


 AVERAGE FORCE                      4.167E-02   TIME AVG. FORCE       3.125E-02
 LARGEST RESIDUAL FORCE            -1.388E-17   AT NODE          2   DOF  1
 LARGEST INCREMENT OF DISP.        -3.333E-04   AT NODE          8   DOF  2
 LARGEST CORRECTION TO DISP.        1.319E-18   AT NODE          7   DOF  2
          THE FORCE     EQUILIBRIUM RESPONSE WAS LINEAR IN THIS INCREMENT
          TIME INCREMENT MAY NOW INCREASE TO    2.000E-02

 ITERATION SUMMARY FOR THE INCREMENT:   1 TOTAL ITERATIONS, OF WHICH
   0 ARE SEVERE DISCONTINUITY ITERATIONS AND  1 ARE EQUILIBRIUM ITERATIONS.

 TIME INCREMENT COMPLETED  1.667E-02,  FRACTION OF STEP COMPLETED  3.333E-02
 STEP TIME COMPLETED       3.333E-02,  TOTAL TIME COMPLETED        3.333E-02


  INCREMENT     3 STARTS. ATTEMPT NUMBER  1, TIME INCREMENT  2.000E-02

  NUMBER OF EQUATIONS =        24     NUMBER OF RHS =    1
  NUMBER OF FLOATING PT. OPERATIONS =  9.25E+03

     CHECK POINT   START OF SOLVER    

     CHECK POINT  END OF SOLVER       

       ELAPSED USER TIME (SEC)      =   0.0000    
       ELAPSED SYSTEM TIME (SEC)    =   0.0000    
       ELAPSED TOTAL CPU TIME (SEC) =   0.0000    
       ELAPSED WALLCLOCK TIME (SEC) =          0

               CONVERGENCE CHECKS FOR EQUILIBRIUM ITERATION     1


 AVERAGE FORCE                      6.667E-02   TIME AVG. FORCE       4.306E-02
 LARGEST RESIDUAL FORCE             2.776E-17   AT NODE          4   DOF  2
 LARGEST INCREMENT OF DISP.        -4.000E-04   AT NODE          3   DOF  1
 LARGEST CORRECTION TO DISP.       -1.367E-18   AT NODE          6   DOF  1
          THE FORCE     EQUILIBRIUM RESPONSE WAS LINEAR IN THIS INCREMENT

 ITERATION SUMMARY FOR THE INCREMENT:   1 TOTAL ITERATIONS, OF WHICH
   0 ARE SEVERE DISCONTINUITY ITERATIONS AND  1 ARE EQUILIBRIUM ITERATIONS.

 TIME INCREMENT COMPLETED  2.000E-02,  FRACTION OF STEP COMPLETED  5.333E-02
 STEP TIME COMPLETED       5.333E-02,  TOTAL TIME COMPLETED        5.333E-02


  INCREMENT     4 STARTS. ATTEMPT NUMBER  1, TIME INCREMENT  2.000E-02

  NUMBER OF EQUATIONS =        24     NUMBER OF RHS =    1
  NUMBER OF FLOATING PT. OPERATIONS =  9.25E+03

     CHECK POINT   START OF SOLVER    

     CHECK POINT  END OF SOLVER       

       ELAPSED USER TIME (SEC)      =   0.0000    
       ELAPSED SYSTEM TIME (SEC)    =   0.0000    
       ELAPSED TOTAL CPU TIME (SEC) =   0.0000    
       ELAPSED WALLCLOCK TIME (SEC) =          0

               CONVERGENCE CHECKS FOR EQUILIBRIUM ITERATION     1


 AVERAGE FORCE                      9.167E-02   TIME AVG. FORCE       5.521E-02
 LARGEST RESIDUAL FORCE             2.776E-17   AT NODE          3   DOF  1
 LARGEST INCREMENT OF DISP.        -4.000E-04   AT NODE          7   DOF  2
 LARGEST CORRECTION TO DISP.        3.546E-18   AT NODE          8   DOF  2
          THE FORCE     EQUILIBRIUM RESPONSE WAS LINEAR IN THIS INCREMENT

 ITERATION SUMMARY FOR THE INCREMENT:   1 TOTAL ITERATIONS, OF WHICH
   0 ARE SEVERE DISCONTINUITY ITERATIONS AND  1 ARE EQUILIBRIUM ITERATIONS.

 TIME INCREMENT COMPLETED  2.000E-02,  FRACTION OF STEP COMPLETED  7.333E-02
 STEP TIME COMPLETED       7.333E-02,  TOTAL TIME COMPLETED        7.333E-02


  INCREMENT     5 STARTS. ATTEMPT NUMBER  1, TIME INCREMENT  2.000E-02

  NUMBER OF EQUATIONS =        24     NUMBER OF RHS =    1
  NUMBER OF FLOATING PT. OPERATIONS =  9.25E+03

     CHECK POINT   START OF SOLVER    

     CHECK POINT  END OF SOLVER       

       ELAPSED USER TIME (SEC)      =   0.0000    
       ELAPSED SYSTEM TIME (SEC)    =   0.0000    
       ELAPSED TOTAL CPU TIME (SEC) =   0.0000    
       ELAPSED WALLCLOCK TIME (SEC) =          0

               CONVERGENCE CHECKS FOR EQUILIBRIUM ITERATION     1


 AVERAGE FORCE                      0.117       TIME AVG. FORCE       6.750E-02
 LARGEST RESIDUAL FORCE            -4.163E-17   AT NODE          2   DOF  1
 LARGEST INCREMENT OF DISP.        -4.000E-04   AT NODE          7   DOF  1
 LARGEST CORRECTION TO DISP.       -6.919E-18   AT NODE          7   DOF  1
          THE FORCE     EQUILIBRIUM RESPONSE WAS LINEAR IN THIS INCREMENT

 ITERATION SUMMARY FOR THE INCREMENT:   1 TOTAL ITERATIONS, OF WHICH
   0 ARE SEVERE DISCONTINUITY ITERATIONS AND  1 ARE EQUILIBRIUM ITERATIONS.

 TIME INCREMENT COMPLETED  2.000E-02,  FRACTION OF STEP COMPLETED  9.333E-02
 STEP TIME COMPLETED       9.333E-02,  TOTAL TIME COMPLETED        9.333E-02


  INCREMENT     6 STARTS. ATTEMPT NUMBER  1, TIME INCREMENT  2.000E-02

  NUMBER OF EQUATIONS =        24     NUMBER OF RHS =    1
  NUMBER OF FLOATING PT. OPERATIONS =  9.25E+03

     CHECK POINT   START OF SOLVER    

     CHECK POINT  END OF SOLVER       

       ELAPSED USER TIME (SEC)      =   0.0000    
       ELAPSED SYSTEM TIME (SEC)    =   0.0000    
       ELAPSED TOTAL CPU TIME (SEC) =   0.0000    
       ELAPSED WALLCLOCK TIME (SEC) =          0

               CONVERGENCE CHECKS FOR EQUILIBRIUM ITERATION     1


 AVERAGE FORCE                      0.142       TIME AVG. FORCE       7.986E-02
 LARGEST RESIDUAL FORCE             5.551E-17   AT NODE          7   DOF  2
 LARGEST INCREMENT OF DISP.        -4.000E-04   AT NODE          3   DOF  2
 LARGEST CORRECTION TO DISP.        9.306E-18   AT NODE          7   DOF  1
          THE FORCE     EQUILIBRIUM RESPONSE WAS LINEAR IN THIS INCREMENT

 ITERATION SUMMARY FOR THE INCREMENT:   1 TOTAL ITERATIONS, OF WHICH
   0 ARE SEVERE DISCONTINUITY ITERATIONS AND  1 ARE EQUILIBRIUM ITERATIONS.

 TIME INCREMENT COMPLETED  2.000E-02,  FRACTION OF STEP COMPLETED  0.113    
 STEP TIME COMPLETED       0.113    ,  TOTAL TIME COMPLETED        0.113    


  INCREMENT     7 STARTS. ATTEMPT NUMBER  1, TIME INCREMENT  2.000E-02

  NUMBER OF EQUATIONS =        24     NUMBER OF RHS =    1
  NUMBER OF FLOATING PT. OPERATIONS =  9.25E+03

     CHECK POINT   START OF SOLVER    

     CHECK POINT  END OF SOLVER       

       ELAPSED USER TIME (SEC)      =   0.0000    
       ELAPSED SYSTEM TIME (SEC)    =   0.0000    
       ELAPSED TOTAL CPU TIME (SEC) =   0.0000    
       ELAPSED WALLCLOCK TIME (SEC) =          0

               CONVERGENCE CHECKS FOR EQUILIBRIUM ITERATION     1


 AVERAGE FORCE                      0.167       TIME AVG. FORCE       9.226E-02
 LARGEST RESIDUAL FORCE             5.551E-17   AT NODE          6   DOF  1
 LARGEST INCREMENT OF DISP.        -4.000E-04   AT NODE          7   DOF  1
 LARGEST CORRECTION TO DISP.       -1.114E-17   AT NODE          7   DOF  1
          THE FORCE     EQUILIBRIUM RESPONSE WAS LINEAR IN THIS INCREMENT

 ITERATION SUMMARY FOR THE INCREMENT:   1 TOTAL ITERATIONS, OF WHICH
   0 ARE SEVERE DISCONTINUITY ITERATIONS AND  1 ARE EQUILIBRIUM ITERATIONS.

 TIME INCREMENT COMPLETED  2.000E-02,  FRACTION OF STEP COMPLETED  0.133    
 STEP TIME COMPLETED       0.133    ,  TOTAL TIME COMPLETED        0.133    


  INCREMENT     8 STARTS. ATTEMPT NUMBER  1, TIME INCREMENT  2.000E-02

  NUMBER OF EQUATIONS =        24     NUMBER OF RHS =    1
  NUMBER OF FLOATING PT. OPERATIONS =  9.25E+03

     CHECK POINT   START OF SOLVER    

     CHECK POINT  END OF SOLVER       

       ELAPSED USER TIME (SEC)      =   0.0000    
       ELAPSED SYSTEM TIME (SEC)    =   0.0000    
       ELAPSED TOTAL CPU TIME (SEC) =   0.0000    
       ELAPSED WALLCLOCK TIME (SEC) =          0

               CONVERGENCE CHECKS FOR EQUILIBRIUM ITERATION     1


 AVERAGE FORCE                      0.192       TIME AVG. FORCE       0.105    
 LARGEST RESIDUAL FORCE            -5.551E-17   AT NODE          4   DOF  2
 LARGEST INCREMENT OF DISP.        -4.000E-04   AT NODE          3   DOF  2
 LARGEST CORRECTION TO DISP.        1.215E-17   AT NODE          7   DOF  1
          THE FORCE     EQUILIBRIUM RESPONSE WAS LINEAR IN THIS INCREMENT

 ITERATION SUMMARY FOR THE INCREMENT:   1 TOTAL ITERATIONS, OF WHICH
   0 ARE SEVERE DISCONTINUITY ITERATIONS AND  1 ARE EQUILIBRIUM ITERATIONS.

 TIME INCREMENT COMPLETED  2.000E-02,  FRACTION OF STEP COMPLETED  0.153    
 STEP TIME COMPLETED       0.153    ,  TOTAL TIME COMPLETED        0.153    


  INCREMENT     9 STARTS. ATTEMPT NUMBER  1, TIME INCREMENT  2.000E-02

  NUMBER OF EQUATIONS =        24     NUMBER OF RHS =    1
  NUMBER OF FLOATING PT. OPERATIONS =  9.25E+03

     CHECK POINT   START OF SOLVER    

     CHECK POINT  END OF SOLVER       

       ELAPSED USER TIME (SEC)      =   0.0000    
       ELAPSED SYSTEM TIME (SEC)    =   0.0000    
       ELAPSED TOTAL CPU TIME (SEC) =   0.0000    
       ELAPSED WALLCLOCK TIME (SEC) =          0

               CONVERGENCE CHECKS FOR EQUILIBRIUM ITERATION     1


 AVERAGE FORCE                      0.217       TIME AVG. FORCE       0.117    
 LARGEST RESIDUAL FORCE             8.327E-17   AT NODE          2   DOF  1
 LARGEST INCREMENT OF DISP.        -4.000E-04   AT NODE          4   DOF  2
 LARGEST CORRECTION TO DISP.       -1.615E-17   AT NODE          4   DOF  2
          THE FORCE     EQUILIBRIUM RESPONSE WAS LINEAR IN THIS INCREMENT

 ITERATION SUMMARY FOR THE INCREMENT:   1 TOTAL ITERATIONS, OF WHICH
   0 ARE SEVERE DISCONTINUITY ITERATIONS AND  1 ARE EQUILIBRIUM ITERATIONS.

 TIME INCREMENT COMPLETED  2.000E-02,  FRACTION OF STEP COMPLETED  0.173    
 STEP TIME COMPLETED       0.173    ,  TOTAL TIME COMPLETED        0.173    


  INCREMENT    10 STARTS. ATTEMPT NUMBER  1, TIME INCREMENT  2.000E-02

  NUMBER OF EQUATIONS =        24     NUMBER OF RHS =    1
  NUMBER OF FLOATING PT. OPERATIONS =  9.25E+03

     CHECK POINT   START OF SOLVER    

     CHECK POINT  END OF SOLVER       

       ELAPSED USER TIME (SEC)      =   0.0000    
       ELAPSED SYSTEM TIME (SEC)    =   0.0000    
       ELAPSED TOTAL CPU TIME (SEC) =   0.0000    
       ELAPSED WALLCLOCK TIME (SEC) =          0

               CONVERGENCE CHECKS FOR EQUILIBRIUM ITERATION     1


 AVERAGE FORCE                      0.242       TIME AVG. FORCE       0.130    
 LARGEST RESIDUAL FORCE             1.388E-16   AT NODE          8   DOF  2
 LARGEST INCREMENT OF DISP.        -4.000E-04   AT NODE          6   DOF  1
 LARGEST CORRECTION TO DISP.        1.972E-17   AT NODE          4   DOF  2
          THE FORCE     EQUILIBRIUM RESPONSE WAS LINEAR IN THIS INCREMENT

 ITERATION SUMMARY FOR THE INCREMENT:   1 TOTAL ITERATIONS, OF WHICH
   0 ARE SEVERE DISCONTINUITY ITERATIONS AND  1 ARE EQUILIBRIUM ITERATIONS.

 TIME INCREMENT COMPLETED  2.000E-02,  FRACTION OF STEP COMPLETED  0.193    
 STEP TIME COMPLETED       0.193    ,  TOTAL TIME COMPLETED        0.193    


  INCREMENT    11 STARTS. ATTEMPT NUMBER  1, TIME INCREMENT  2.000E-02

  NUMBER OF EQUATIONS =        24     NUMBER OF RHS =    1
  NUMBER OF FLOATING PT. OPERATIONS =  9.25E+03

     CHECK POINT   START OF SOLVER    

     CHECK POINT  END OF SOLVER       

       ELAPSED USER TIME (SEC)      =   0.0000    
       ELAPSED SYSTEM TIME (SEC)    =   0.0000    
       ELAPSED TOTAL CPU TIME (SEC) =   0.0000    
       ELAPSED WALLCLOCK TIME (SEC) =          0

               CONVERGENCE CHECKS FOR EQUILIBRIUM ITERATION     1


 AVERAGE FORCE                      0.267       TIME AVG. FORCE       0.142    
 LARGEST RESIDUAL FORCE            -1.110E-16   AT NODE          6   DOF  1
 LARGEST INCREMENT OF DISP.        -4.000E-04   AT NODE          4   DOF  2
 LARGEST CORRECTION TO DISP.       -1.766E-17   AT NODE          4   DOF  2
          THE FORCE     EQUILIBRIUM RESPONSE WAS LINEAR IN THIS INCREMENT

 ITERATION SUMMARY FOR THE INCREMENT:   1 TOTAL ITERATIONS, OF WHICH
   0 ARE SEVERE DISCONTINUITY ITERATIONS AND  1 ARE EQUILIBRIUM ITERATIONS.

 TIME INCREMENT COMPLETED  2.000E-02,  FRACTION OF STEP COMPLETED  0.213    
 STEP TIME COMPLETED       0.213    ,  TOTAL TIME COMPLETED        0.213    


  INCREMENT    12 STARTS. ATTEMPT NUMBER  1, TIME INCREMENT  2.000E-02

  NUMBER OF EQUATIONS =        24     NUMBER OF RHS =    1
  NUMBER OF FLOATING PT. OPERATIONS =  9.25E+03

     CHECK POINT   START OF SOLVER    

     CHECK POINT  END OF SOLVER       

       ELAPSED USER TIME (SEC)      =   0.0000    
       ELAPSED SYSTEM TIME (SEC)    =   0.0000    
       ELAPSED TOTAL CPU TIME (SEC) =   0.0000    
       ELAPSED WALLCLOCK TIME (SEC) =          0

               CONVERGENCE CHECKS FOR EQUILIBRIUM ITERATION     1


 AVERAGE FORCE                      0.292       TIME AVG. FORCE       0.155    
 LARGEST RESIDUAL FORCE            -1.110E-16   AT NODE          2   DOF  1
 LARGEST INCREMENT OF DISP.        -4.000E-04   AT NODE          6   DOF  1
 LARGEST CORRECTION TO DISP.       -1.717E-17   AT NODE          6   DOF  1
          THE FORCE     EQUILIBRIUM RESPONSE WAS LINEAR IN THIS INCREMENT

 ITERATION SUMMARY FOR THE INCREMENT:   1 TOTAL ITERATIONS, OF WHICH
   0 ARE SEVERE DISCONTINUITY ITERATIONS AND  1 ARE EQUILIBRIUM ITERATIONS.

 TIME INCREMENT COMPLETED  2.000E-02,  FRACTION OF STEP COMPLETED  0.233    
 STEP TIME COMPLETED       0.233    ,  TOTAL TIME COMPLETED        0.233    


  INCREMENT    13 STARTS. ATTEMPT NUMBER  1, TIME INCREMENT  2.000E-02

  NUMBER OF EQUATIONS =        24     NUMBER OF RHS =    1
  NUMBER OF FLOATING PT. OPERATIONS =  9.25E+03

     CHECK POINT   START OF SOLVER    

     CHECK POINT  END OF SOLVER       

       ELAPSED USER TIME (SEC)      =   0.0000    
       ELAPSED SYSTEM TIME (SEC)    =   0.0000    
       ELAPSED TOTAL CPU TIME (SEC) =   0.0000    
       ELAPSED WALLCLOCK TIME (SEC) =          0

               CONVERGENCE CHECKS FOR EQUILIBRIUM ITERATION     1


 AVERAGE FORCE                      0.317       TIME AVG. FORCE       0.167    
 LARGEST RESIDUAL FORCE            -1.110E-16   AT NODE          3   DOF  1
 LARGEST INCREMENT OF DISP.        -4.000E-04   AT NODE          2   DOF  1
 LARGEST CORRECTION TO DISP.        2.867E-17   AT NODE          3   DOF  1
          THE FORCE     EQUILIBRIUM RESPONSE WAS LINEAR IN THIS INCREMENT

 ITERATION SUMMARY FOR THE INCREMENT:   1 TOTAL ITERATIONS, OF WHICH
   0 ARE SEVERE DISCONTINUITY ITERATIONS AND  1 ARE EQUILIBRIUM ITERATIONS.

 TIME INCREMENT COMPLETED  2.000E-02,  FRACTION OF STEP COMPLETED  0.253    
 STEP TIME COMPLETED       0.253    ,  TOTAL TIME COMPLETED        0.253    


  INCREMENT    14 STARTS. ATTEMPT NUMBER  1, TIME INCREMENT  2.000E-02

  NUMBER OF EQUATIONS =        24     NUMBER OF RHS =    1
  NUMBER OF FLOATING PT. OPERATIONS =  9.25E+03

     CHECK POINT   START OF SOLVER    

     CHECK POINT  END OF SOLVER       

       ELAPSED USER TIME (SEC)      =   0.0000    
       ELAPSED SYSTEM TIME (SEC)    =   0.0000    
       ELAPSED TOTAL CPU TIME (SEC) =   0.0000    
       ELAPSED WALLCLOCK TIME (SEC) =          0

               CONVERGENCE CHECKS FOR EQUILIBRIUM ITERATION     1


 AVERAGE FORCE                      0.342       TIME AVG. FORCE       0.179    
 LARGEST RESIDUAL FORCE            -1.110E-16   AT NODE          7   DOF  2
 LARGEST INCREMENT OF DISP.        -4.000E-04   AT NODE          3   DOF  1
 LARGEST CORRECTION TO DISP.       -4.141E-17   AT NODE          3   DOF  1
          THE FORCE     EQUILIBRIUM RESPONSE WAS LINEAR IN THIS INCREMENT

 ITERATION SUMMARY FOR THE INCREMENT:   1 TOTAL ITERATIONS, OF WHICH
   0 ARE SEVERE DISCONTINUITY ITERATIONS AND  1 ARE EQUILIBRIUM ITERATIONS.

 TIME INCREMENT COMPLETED  2.000E-02,  FRACTION OF STEP COMPLETED  0.273    
 STEP TIME COMPLETED       0.273    ,  TOTAL TIME COMPLETED        0.273    


  INCREMENT    15 STARTS. ATTEMPT NUMBER  1, TIME INCREMENT  2.000E-02

  NUMBER OF EQUATIONS =        24     NUMBER OF RHS =    1
  NUMBER OF FLOATING PT. OPERATIONS =  9.25E+03

     CHECK POINT   START OF SOLVER    

     CHECK POINT  END OF SOLVER       

       ELAPSED USER TIME (SEC)      =   0.0000    
       ELAPSED SYSTEM TIME (SEC)    =   0.0000    
       ELAPSED TOTAL CPU TIME (SEC) =   0.0000    
       ELAPSED WALLCLOCK TIME (SEC) =          0

               CONVERGENCE CHECKS FOR EQUILIBRIUM ITERATION     1


 AVERAGE FORCE                      0.367       TIME AVG. FORCE       0.192    
 LARGEST RESIDUAL FORCE             5.551E-17   AT NODE          3   DOF  1
 LARGEST INCREMENT OF DISP.        -4.000E-04   AT NODE          2   DOF  1
 LARGEST CORRECTION TO DISP.       -3.648E-17   AT NODE          2   DOF  1
          THE FORCE     EQUILIBRIUM RESPONSE WAS LINEAR IN THIS INCREMENT

 ITERATION SUMMARY FOR THE INCREMENT:   1 TOTAL ITERATIONS, OF WHICH
   0 ARE SEVERE DISCONTINUITY ITERATIONS AND  1 ARE EQUILIBRIUM ITERATIONS.

 TIME INCREMENT COMPLETED  2.000E-02,  FRACTION OF STEP COMPLETED  0.293    
 STEP TIME COMPLETED       0.293    ,  TOTAL TIME COMPLETED        0.293    


  INCREMENT    16 STARTS. ATTEMPT NUMBER  1, TIME INCREMENT  2.000E-02

  NUMBER OF EQUATIONS =        24     NUMBER OF RHS =    1
  NUMBER OF FLOATING PT. OPERATIONS =  9.25E+03

     CHECK POINT   START OF SOLVER    

     CHECK POINT  END OF SOLVER       

       ELAPSED USER TIME (SEC)      =   0.0000    
       ELAPSED SYSTEM TIME (SEC)    =   0.0000    
       ELAPSED TOTAL CPU TIME (SEC) =   0.0000    
       ELAPSED WALLCLOCK TIME (SEC) =          0

               CONVERGENCE CHECKS FOR EQUILIBRIUM ITERATION     1


 AVERAGE FORCE                      0.392       TIME AVG. FORCE       0.204    
 LARGEST RESIDUAL FORCE            -1.665E-16   AT NODE          7   DOF  1
 LARGEST INCREMENT OF DISP.        -4.000E-04   AT NODE          6   DOF  1
 LARGEST CORRECTION TO DISP.        2.333E-17   AT NODE          2   DOF  1
          THE FORCE     EQUILIBRIUM RESPONSE WAS LINEAR IN THIS INCREMENT

 ITERATION SUMMARY FOR THE INCREMENT:   1 TOTAL ITERATIONS, OF WHICH
   0 ARE SEVERE DISCONTINUITY ITERATIONS AND  1 ARE EQUILIBRIUM ITERATIONS.

 TIME INCREMENT COMPLETED  2.000E-02,  FRACTION OF STEP COMPLETED  0.313    
 STEP TIME COMPLETED       0.313    ,  TOTAL TIME COMPLETED        0.313    


  INCREMENT    17 STARTS. ATTEMPT NUMBER  1, TIME INCREMENT  2.000E-02

  NUMBER OF EQUATIONS =        24     NUMBER OF RHS =    1
  NUMBER OF FLOATING PT. OPERATIONS =  9.25E+03

     CHECK POINT   START OF SOLVER    

     CHECK POINT  END OF SOLVER       

       ELAPSED USER TIME (SEC)      =   0.0000    
       ELAPSED SYSTEM TIME (SEC)    =   0.0000    
       ELAPSED TOTAL CPU TIME (SEC) =   0.0000    
       ELAPSED WALLCLOCK TIME (SEC) =          0

               CONVERGENCE CHECKS FOR EQUILIBRIUM ITERATION     1


 AVERAGE FORCE                      0.417       TIME AVG. FORCE       0.217    
 LARGEST RESIDUAL FORCE            -5.551E-17   AT NODE          3   DOF  1
 LARGEST INCREMENT OF DISP.        -4.000E-04   AT NODE          7   DOF  1
 LARGEST CORRECTION TO DISP.       -2.783E-17   AT NODE          7   DOF  1
          THE FORCE     EQUILIBRIUM RESPONSE WAS LINEAR IN THIS INCREMENT

 ITERATION SUMMARY FOR THE INCREMENT:   1 TOTAL ITERATIONS, OF WHICH
   0 ARE SEVERE DISCONTINUITY ITERATIONS AND  1 ARE EQUILIBRIUM ITERATIONS.

 TIME INCREMENT COMPLETED  2.000E-02,  FRACTION OF STEP COMPLETED  0.333    
 STEP TIME COMPLETED       0.333    ,  TOTAL TIME COMPLETED        0.333    


  INCREMENT    18 STARTS. ATTEMPT NUMBER  1, TIME INCREMENT  2.000E-02

  NUMBER OF EQUATIONS =        24     NUMBER OF RHS =    1
  NUMBER OF FLOATING PT. OPERATIONS =  9.25E+03

     CHECK POINT   START OF SOLVER    

     CHECK POINT  END OF SOLVER       

       ELAPSED USER TIME (SEC)      =   0.0000    
       ELAPSED SYSTEM TIME (SEC)    =   0.0000    
       ELAPSED TOTAL CPU TIME (SEC) =   0.0000    
       ELAPSED WALLCLOCK TIME (SEC) =          0

               CONVERGENCE CHECKS FOR EQUILIBRIUM ITERATION     1


 AVERAGE FORCE                      0.442       TIME AVG. FORCE       0.229    
 LARGEST RESIDUAL FORCE             1.665E-16   AT NODE          6   DOF  1
 LARGEST INCREMENT OF DISP.        -4.000E-04   AT NODE          3   DOF  1
 LARGEST CORRECTION TO DISP.        2.944E-17   AT NODE          7   DOF  1
          THE FORCE     EQUILIBRIUM RESPONSE WAS LINEAR IN THIS INCREMENT

 ITERATION SUMMARY FOR THE INCREMENT:   1 TOTAL ITERATIONS, OF WHICH
   0 ARE SEVERE DISCONTINUITY ITERATIONS AND  1 ARE EQUILIBRIUM ITERATIONS.

 TIME INCREMENT COMPLETED  2.000E-02,  FRACTION OF STEP COMPLETED  0.353    
 STEP TIME COMPLETED       0.353    ,  TOTAL TIME COMPLETED        0.353    


  INCREMENT    19 STARTS. ATTEMPT NUMBER  1, TIME INCREMENT  2.000E-02

  NUMBER OF EQUATIONS =        24     NUMBER OF RHS =    1
  NUMBER OF FLOATING PT. OPERATIONS =  9.25E+03

     CHECK POINT   START OF SOLVER    

     CHECK POINT  END OF SOLVER       

       ELAPSED USER TIME (SEC)      =   0.0000    
       ELAPSED SYSTEM TIME (SEC)    =   0.0000    
       ELAPSED TOTAL CPU TIME (SEC) =   0.0000    
       ELAPSED WALLCLOCK TIME (SEC) =          0

               CONVERGENCE CHECKS FOR EQUILIBRIUM ITERATION     1


 AVERAGE FORCE                      0.467       TIME AVG. FORCE       0.242    
 LARGEST RESIDUAL FORCE             5.551E-17   AT NODE          3   DOF  2
 LARGEST INCREMENT OF DISP.        -4.000E-04   AT NODE          7   DOF  1
 LARGEST CORRECTION TO DISP.       -2.954E-17   AT NODE          7   DOF  1
          THE FORCE     EQUILIBRIUM RESPONSE WAS LINEAR IN THIS INCREMENT

 ITERATION SUMMARY FOR THE INCREMENT:   1 TOTAL ITERATIONS, OF WHICH
   0 ARE SEVERE DISCONTINUITY ITERATIONS AND  1 ARE EQUILIBRIUM ITERATIONS.

 TIME INCREMENT COMPLETED  2.000E-02,  FRACTION OF STEP COMPLETED  0.373    
 STEP TIME COMPLETED       0.373    ,  TOTAL TIME COMPLETED        0.373    


  INCREMENT    20 STARTS. ATTEMPT NUMBER  1, TIME INCREMENT  2.000E-02

  NUMBER OF EQUATIONS =        24     NUMBER OF RHS =    1
  NUMBER OF FLOATING PT. OPERATIONS =  9.25E+03

     CHECK POINT   START OF SOLVER    

     CHECK POINT  END OF SOLVER       

       ELAPSED USER TIME (SEC)      =   0.0000    
       ELAPSED SYSTEM TIME (SEC)    =   0.0000    
       ELAPSED TOTAL CPU TIME (SEC) =   0.0000    
       ELAPSED WALLCLOCK TIME (SEC) =          0

               CONVERGENCE CHECKS FOR EQUILIBRIUM ITERATION     1


 AVERAGE FORCE                      0.492       TIME AVG. FORCE       0.254    
 LARGEST RESIDUAL FORCE            -1.665E-16   AT NODE          4   DOF  2
 LARGEST INCREMENT OF DISP.        -4.000E-04   AT NODE          3   DOF  2
 LARGEST CORRECTION TO DISP.        2.526E-17   AT NODE          4   DOF  2
          THE FORCE     EQUILIBRIUM RESPONSE WAS LINEAR IN THIS INCREMENT

 ITERATION SUMMARY FOR THE INCREMENT:   1 TOTAL ITERATIONS, OF WHICH
   0 ARE SEVERE DISCONTINUITY ITERATIONS AND  1 ARE EQUILIBRIUM ITERATIONS.

 TIME INCREMENT COMPLETED  2.000E-02,  FRACTION OF STEP COMPLETED  0.393    
 STEP TIME COMPLETED       0.393    ,  TOTAL TIME COMPLETED        0.393    


  INCREMENT    21 STARTS. ATTEMPT NUMBER  1, TIME INCREMENT  2.000E-02

  NUMBER OF EQUATIONS =        24     NUMBER OF RHS =    1
  NUMBER OF FLOATING PT. OPERATIONS =  9.25E+03

     CHECK POINT   START OF SOLVER    

     CHECK POINT  END OF SOLVER       

       ELAPSED USER TIME (SEC)      =   0.0000    
       ELAPSED SYSTEM TIME (SEC)    =   0.0000    
       ELAPSED TOTAL CPU TIME (SEC) =   0.0000    
       ELAPSED WALLCLOCK TIME (SEC) =          0

               CONVERGENCE CHECKS FOR EQUILIBRIUM ITERATION     1


 AVERAGE FORCE                      0.517       TIME AVG. FORCE       0.267    
 LARGEST RESIDUAL FORCE            -2.220E-16   AT NODE          6   DOF  1
 LARGEST INCREMENT OF DISP.        -4.000E-04   AT NODE          7   DOF  1
 LARGEST CORRECTION TO DISP.       -1.619E-17   AT NODE          4   DOF  2
          THE FORCE     EQUILIBRIUM RESPONSE WAS LINEAR IN THIS INCREMENT

 ITERATION SUMMARY FOR THE INCREMENT:   1 TOTAL ITERATIONS, OF WHICH
   0 ARE SEVERE DISCONTINUITY ITERATIONS AND  1 ARE EQUILIBRIUM ITERATIONS.

 TIME INCREMENT COMPLETED  2.000E-02,  FRACTION OF STEP COMPLETED  0.413    
 STEP TIME COMPLETED       0.413    ,  TOTAL TIME COMPLETED        0.413    


  INCREMENT    22 STARTS. ATTEMPT NUMBER  1, TIME INCREMENT  2.000E-02

  NUMBER OF EQUATIONS =        24     NUMBER OF RHS =    1
  NUMBER OF FLOATING PT. OPERATIONS =  9.25E+03

     CHECK POINT   START OF SOLVER    

     CHECK POINT  END OF SOLVER       

       ELAPSED USER TIME (SEC)      =   0.0000    
       ELAPSED SYSTEM TIME (SEC)    =   0.0000    
       ELAPSED TOTAL CPU TIME (SEC) =   0.0000    
       ELAPSED WALLCLOCK TIME (SEC) =          0

               CONVERGENCE CHECKS FOR EQUILIBRIUM ITERATION     1


 AVERAGE FORCE                      0.542       TIME AVG. FORCE       0.279    
 LARGEST RESIDUAL FORCE             1.110E-16   AT NODE          3   DOF  1
 LARGEST INCREMENT OF DISP.        -4.000E-04   AT NODE          6   DOF  1
 LARGEST CORRECTION TO DISP.       -3.757E-17   AT NODE          6   DOF  1
          THE FORCE     EQUILIBRIUM RESPONSE WAS LINEAR IN THIS INCREMENT

 ITERATION SUMMARY FOR THE INCREMENT:   1 TOTAL ITERATIONS, OF WHICH
   0 ARE SEVERE DISCONTINUITY ITERATIONS AND  1 ARE EQUILIBRIUM ITERATIONS.

 TIME INCREMENT COMPLETED  2.000E-02,  FRACTION OF STEP COMPLETED  0.433    
 STEP TIME COMPLETED       0.433    ,  TOTAL TIME COMPLETED        0.433    


  INCREMENT    23 STARTS. ATTEMPT NUMBER  1, TIME INCREMENT  2.000E-02

  NUMBER OF EQUATIONS =        24     NUMBER OF RHS =    1
  NUMBER OF FLOATING PT. OPERATIONS =  9.25E+03

     CHECK POINT   START OF SOLVER    

     CHECK POINT  END OF SOLVER       

       ELAPSED USER TIME (SEC)      =   0.0000    
       ELAPSED SYSTEM TIME (SEC)    =   0.0000    
       ELAPSED TOTAL CPU TIME (SEC) =   0.0000    
       ELAPSED WALLCLOCK TIME (SEC) =          0

               CONVERGENCE CHECKS FOR EQUILIBRIUM ITERATION     1


 AVERAGE FORCE                      0.567       TIME AVG. FORCE       0.292    
 LARGEST RESIDUAL FORCE            -2.220E-16   AT NODE          7   DOF  1
 LARGEST INCREMENT OF DISP.        -4.000E-04   AT NODE          2   DOF  1
 LARGEST CORRECTION TO DISP.        4.791E-17   AT NODE          6   DOF  1
          THE FORCE     EQUILIBRIUM RESPONSE WAS LINEAR IN THIS INCREMENT

 ITERATION SUMMARY FOR THE INCREMENT:   1 TOTAL ITERATIONS, OF WHICH
   0 ARE SEVERE DISCONTINUITY ITERATIONS AND  1 ARE EQUILIBRIUM ITERATIONS.

 TIME INCREMENT COMPLETED  2.000E-02,  FRACTION OF STEP COMPLETED  0.453    
 STEP TIME COMPLETED       0.453    ,  TOTAL TIME COMPLETED        0.453    


  INCREMENT    24 STARTS. ATTEMPT NUMBER  1, TIME INCREMENT  2.000E-02

  NUMBER OF EQUATIONS =        24     NUMBER OF RHS =    1
  NUMBER OF FLOATING PT. OPERATIONS =  9.25E+03

     CHECK POINT   START OF SOLVER    

     CHECK POINT  END OF SOLVER       

       ELAPSED USER TIME (SEC)      =   0.0000    
       ELAPSED SYSTEM TIME (SEC)    =   0.0000    
       ELAPSED TOTAL CPU TIME (SEC) =   0.0000    
       ELAPSED WALLCLOCK TIME (SEC) =          0

               CONVERGENCE CHECKS FOR EQUILIBRIUM ITERATION     1


 AVERAGE FORCE                      0.592       TIME AVG. FORCE       0.304    
 LARGEST RESIDUAL FORCE             1.110E-16   AT NODE          2   DOF  1
 LARGEST INCREMENT OF DISP.        -4.000E-04   AT NODE          2   DOF  1
 LARGEST CORRECTION TO DISP.        1.157E-17   AT NODE          8   DOF  2
          THE FORCE     EQUILIBRIUM RESPONSE WAS LINEAR IN THIS INCREMENT

 ITERATION SUMMARY FOR THE INCREMENT:   1 TOTAL ITERATIONS, OF WHICH
   0 ARE SEVERE DISCONTINUITY ITERATIONS AND  1 ARE EQUILIBRIUM ITERATIONS.

 TIME INCREMENT COMPLETED  2.000E-02,  FRACTION OF STEP COMPLETED  0.473    
 STEP TIME COMPLETED       0.473    ,  TOTAL TIME COMPLETED        0.473    


  INCREMENT    25 STARTS. ATTEMPT NUMBER  1, TIME INCREMENT  2.000E-02

  NUMBER OF EQUATIONS =        24     NUMBER OF RHS =    1
  NUMBER OF FLOATING PT. OPERATIONS =  9.25E+03

     CHECK POINT   START OF SOLVER    

     CHECK POINT  END OF SOLVER       

       ELAPSED USER TIME (SEC)      =   0.0000    
       ELAPSED SYSTEM TIME (SEC)    =   0.0000    
       ELAPSED TOTAL CPU TIME (SEC) =   0.0000    
       ELAPSED WALLCLOCK TIME (SEC) =          0

               CONVERGENCE CHECKS FOR EQUILIBRIUM ITERATION     1


 AVERAGE FORCE                      0.617       TIME AVG. FORCE       0.317    
 LARGEST RESIDUAL FORCE            -1.110E-16   AT NODE          2   DOF  1
 LARGEST INCREMENT OF DISP.        -4.000E-04   AT NODE          6   DOF  1
 LARGEST CORRECTION TO DISP.        3.718E-17   AT NODE          2   DOF  1
          THE FORCE     EQUILIBRIUM RESPONSE WAS LINEAR IN THIS INCREMENT

 ITERATION SUMMARY FOR THE INCREMENT:   1 TOTAL ITERATIONS, OF WHICH
   0 ARE SEVERE DISCONTINUITY ITERATIONS AND  1 ARE EQUILIBRIUM ITERATIONS.

 TIME INCREMENT COMPLETED  2.000E-02,  FRACTION OF STEP COMPLETED  0.493    
 STEP TIME COMPLETED       0.493    ,  TOTAL TIME COMPLETED        0.493    


  INCREMENT    26 STARTS. ATTEMPT NUMBER  1, TIME INCREMENT  2.000E-02

  NUMBER OF EQUATIONS =        24     NUMBER OF RHS =    1
  NUMBER OF FLOATING PT. OPERATIONS =  9.25E+03

     CHECK POINT   START OF SOLVER    

     CHECK POINT  END OF SOLVER       

       ELAPSED USER TIME (SEC)      =   0.0000    
       ELAPSED SYSTEM TIME (SEC)    =   0.0000    
       ELAPSED TOTAL CPU TIME (SEC) =   0.0000    
       ELAPSED WALLCLOCK TIME (SEC) =          0

               CONVERGENCE CHECKS FOR EQUILIBRIUM ITERATION     1


 AVERAGE FORCE                      0.642       TIME AVG. FORCE       0.329    
 LARGEST RESIDUAL FORCE            -2.220E-16   AT NODE          3   DOF  1
 LARGEST INCREMENT OF DISP.        -4.000E-04   AT NODE          2   DOF  1
 LARGEST CORRECTION TO DISP.       -6.137E-17   AT NODE          2   DOF  1
          THE FORCE     EQUILIBRIUM RESPONSE WAS LINEAR IN THIS INCREMENT

 ITERATION SUMMARY FOR THE INCREMENT:   1 TOTAL ITERATIONS, OF WHICH
   0 ARE SEVERE DISCONTINUITY ITERATIONS AND  1 ARE EQUILIBRIUM ITERATIONS.

 TIME INCREMENT COMPLETED  2.000E-02,  FRACTION OF STEP COMPLETED  0.513    
 STEP TIME COMPLETED       0.513    ,  TOTAL TIME COMPLETED        0.513    


  INCREMENT    27 STARTS. ATTEMPT NUMBER  1, TIME INCREMENT  2.000E-02

  NUMBER OF EQUATIONS =        24     NUMBER OF RHS =    1
  NUMBER OF FLOATING PT. OPERATIONS =  9.25E+03

     CHECK POINT   START OF SOLVER    

     CHECK POINT  END OF SOLVER       

       ELAPSED USER TIME (SEC)      =   0.0000    
       ELAPSED SYSTEM TIME (SEC)    =   0.0000    
       ELAPSED TOTAL CPU TIME (SEC) =   0.0000    
       ELAPSED WALLCLOCK TIME (SEC) =          0

               CONVERGENCE CHECKS FOR EQUILIBRIUM ITERATION     1


 AVERAGE FORCE                      0.667       TIME AVG. FORCE       0.342    
 LARGEST RESIDUAL FORCE            -4.441E-16   AT NODE          7   DOF  1
 LARGEST INCREMENT OF DISP.        -4.000E-04   AT NODE          3   DOF  1
 LARGEST CORRECTION TO DISP.        1.011E-16   AT NODE          2   DOF  1
          THE FORCE     EQUILIBRIUM RESPONSE WAS LINEAR IN THIS INCREMENT

 ITERATION SUMMARY FOR THE INCREMENT:   1 TOTAL ITERATIONS, OF WHICH
   0 ARE SEVERE DISCONTINUITY ITERATIONS AND  1 ARE EQUILIBRIUM ITERATIONS.

 TIME INCREMENT COMPLETED  2.000E-02,  FRACTION OF STEP COMPLETED  0.533    
 STEP TIME COMPLETED       0.533    ,  TOTAL TIME COMPLETED        0.533    


  INCREMENT    28 STARTS. ATTEMPT NUMBER  1, TIME INCREMENT  2.000E-02

  NUMBER OF EQUATIONS =        24     NUMBER OF RHS =    1
  NUMBER OF FLOATING PT. OPERATIONS =  9.25E+03

     CHECK POINT   START OF SOLVER    

     CHECK POINT  END OF SOLVER       

       ELAPSED USER TIME (SEC)      =   0.0000    
       ELAPSED SYSTEM TIME (SEC)    =   0.0000    
       ELAPSED TOTAL CPU TIME (SEC) =   0.0000    
       ELAPSED WALLCLOCK TIME (SEC) =          0

               CONVERGENCE CHECKS FOR EQUILIBRIUM ITERATION     1


 AVERAGE FORCE                      0.692       TIME AVG. FORCE       0.354    
 LARGEST RESIDUAL FORCE            -3.331E-16   AT NODE          2   DOF  1
 LARGEST INCREMENT OF DISP.        -4.000E-04   AT NODE          2   DOF  1
 LARGEST CORRECTION TO DISP.        8.757E-17   AT NODE          3   DOF  1
          THE FORCE     EQUILIBRIUM RESPONSE WAS LINEAR IN THIS INCREMENT

 ITERATION SUMMARY FOR THE INCREMENT:   1 TOTAL ITERATIONS, OF WHICH
   0 ARE SEVERE DISCONTINUITY ITERATIONS AND  1 ARE EQUILIBRIUM ITERATIONS.

 TIME INCREMENT COMPLETED  2.000E-02,  FRACTION OF STEP COMPLETED  0.553    
 STEP TIME COMPLETED       0.553    ,  TOTAL TIME COMPLETED        0.553    


  INCREMENT    29 STARTS. ATTEMPT NUMBER  1, TIME INCREMENT  2.000E-02

  NUMBER OF EQUATIONS =        24     NUMBER OF RHS =    1
  NUMBER OF FLOATING PT. OPERATIONS =  9.25E+03

     CHECK POINT   START OF SOLVER    

     CHECK POINT  END OF SOLVER       

       ELAPSED USER TIME (SEC)      =   0.0000    
       ELAPSED SYSTEM TIME (SEC)    =   0.0000    
       ELAPSED TOTAL CPU TIME (SEC) =   0.0000    
       ELAPSED WALLCLOCK TIME (SEC) =          0

               CONVERGENCE CHECKS FOR EQUILIBRIUM ITERATION     1


 AVERAGE FORCE                      0.717       TIME AVG. FORCE       0.367    
 LARGEST RESIDUAL FORCE            -1.110E-16   AT NODE          3   DOF  2
 LARGEST INCREMENT OF DISP.        -4.000E-04   AT NODE          7   DOF  2
 LARGEST CORRECTION TO DISP.        3.976E-17   AT NODE          3   DOF  2
          THE FORCE     EQUILIBRIUM RESPONSE WAS LINEAR IN THIS INCREMENT

 ITERATION SUMMARY FOR THE INCREMENT:   1 TOTAL ITERATIONS, OF WHICH
   0 ARE SEVERE DISCONTINUITY ITERATIONS AND  1 ARE EQUILIBRIUM ITERATIONS.

 TIME INCREMENT COMPLETED  2.000E-02,  FRACTION OF STEP COMPLETED  0.573    
 STEP TIME COMPLETED       0.573    ,  TOTAL TIME COMPLETED        0.573    


  INCREMENT    30 STARTS. ATTEMPT NUMBER  1, TIME INCREMENT  2.000E-02

  NUMBER OF EQUATIONS =        24     NUMBER OF RHS =    1
  NUMBER OF FLOATING PT. OPERATIONS =  9.25E+03

     CHECK POINT   START OF SOLVER    

     CHECK POINT  END OF SOLVER       

       ELAPSED USER TIME (SEC)      =   0.0000    
       ELAPSED SYSTEM TIME (SEC)    =   0.0000    
       ELAPSED TOTAL CPU TIME (SEC) =   0.0000    
       ELAPSED WALLCLOCK TIME (SEC) =          0

               CONVERGENCE CHECKS FOR EQUILIBRIUM ITERATION     1


 AVERAGE FORCE                      0.742       TIME AVG. FORCE       0.379    
 LARGEST RESIDUAL FORCE             2.220E-16   AT NODE          3   DOF  1
 LARGEST INCREMENT OF DISP.        -4.000E-04   AT NODE          3   DOF  2
 LARGEST CORRECTION TO DISP.        6.210E-17   AT NODE          4   DOF  2
          THE FORCE     EQUILIBRIUM RESPONSE WAS LINEAR IN THIS INCREMENT

 ITERATION SUMMARY FOR THE INCREMENT:   1 TOTAL ITERATIONS, OF WHICH
   0 ARE SEVERE DISCONTINUITY ITERATIONS AND  1 ARE EQUILIBRIUM ITERATIONS.

 TIME INCREMENT COMPLETED  2.000E-02,  FRACTION OF STEP COMPLETED  0.593    
 STEP TIME COMPLETED       0.593    ,  TOTAL TIME COMPLETED        0.593    


  INCREMENT    31 STARTS. ATTEMPT NUMBER  1, TIME INCREMENT  2.000E-02

  NUMBER OF EQUATIONS =        24     NUMBER OF RHS =    1
  NUMBER OF FLOATING PT. OPERATIONS =  9.25E+03

     CHECK POINT   START OF SOLVER    

     CHECK POINT  END OF SOLVER       

       ELAPSED USER TIME (SEC)      =   0.0000    
       ELAPSED SYSTEM TIME (SEC)    =   0.0000    
       ELAPSED TOTAL CPU TIME (SEC) =   0.0000    
       ELAPSED WALLCLOCK TIME (SEC) =          0

               CONVERGENCE CHECKS FOR EQUILIBRIUM ITERATION     1


 AVERAGE FORCE                      0.767       TIME AVG. FORCE       0.392    
 LARGEST RESIDUAL FORCE            -6.661E-16   AT NODE          8   DOF  2
 LARGEST INCREMENT OF DISP.        -4.000E-04   AT NODE          6   DOF  1
 LARGEST CORRECTION TO DISP.        6.885E-17   AT NODE          7   DOF  1
          THE FORCE     EQUILIBRIUM RESPONSE WAS LINEAR IN THIS INCREMENT

 ITERATION SUMMARY FOR THE INCREMENT:   1 TOTAL ITERATIONS, OF WHICH
   0 ARE SEVERE DISCONTINUITY ITERATIONS AND  1 ARE EQUILIBRIUM ITERATIONS.

 TIME INCREMENT COMPLETED  2.000E-02,  FRACTION OF STEP COMPLETED  0.613    
 STEP TIME COMPLETED       0.613    ,  TOTAL TIME COMPLETED        0.613    


  INCREMENT    32 STARTS. ATTEMPT NUMBER  1, TIME INCREMENT  2.000E-02

  NUMBER OF EQUATIONS =        24     NUMBER OF RHS =    1
  NUMBER OF FLOATING PT. OPERATIONS =  9.25E+03

     CHECK POINT   START OF SOLVER    

     CHECK POINT  END OF SOLVER       

       ELAPSED USER TIME (SEC)      =   0.0000    
       ELAPSED SYSTEM TIME (SEC)    =   0.0000    
       ELAPSED TOTAL CPU TIME (SEC) =   0.0000    
       ELAPSED WALLCLOCK TIME (SEC) =          0

               CONVERGENCE CHECKS FOR EQUILIBRIUM ITERATION     1


 AVERAGE FORCE                      0.792       TIME AVG. FORCE       0.404    
 LARGEST RESIDUAL FORCE            -3.331E-16   AT NODE          8   DOF  2
 LARGEST INCREMENT OF DISP.        -4.000E-04   AT NODE          7   DOF  1
 LARGEST CORRECTION TO DISP.       -8.979E-17   AT NODE          7   DOF  1
          THE FORCE     EQUILIBRIUM RESPONSE WAS LINEAR IN THIS INCREMENT

 ITERATION SUMMARY FOR THE INCREMENT:   1 TOTAL ITERATIONS, OF WHICH
   0 ARE SEVERE DISCONTINUITY ITERATIONS AND  1 ARE EQUILIBRIUM ITERATIONS.

 TIME INCREMENT COMPLETED  2.000E-02,  FRACTION OF STEP COMPLETED  0.633    
 STEP TIME COMPLETED       0.633    ,  TOTAL TIME COMPLETED        0.633    


  INCREMENT    33 STARTS. ATTEMPT NUMBER  1, TIME INCREMENT  2.000E-02

  NUMBER OF EQUATIONS =        24     NUMBER OF RHS =    1
  NUMBER OF FLOATING PT. OPERATIONS =  9.25E+03

     CHECK POINT   START OF SOLVER    

     CHECK POINT  END OF SOLVER       

       ELAPSED USER TIME (SEC)      =   0.0000    
       ELAPSED SYSTEM TIME (SEC)    =   0.0000    
       ELAPSED TOTAL CPU TIME (SEC) =   0.0000    
       ELAPSED WALLCLOCK TIME (SEC) =          0

               CONVERGENCE CHECKS FOR EQUILIBRIUM ITERATION     1


 AVERAGE FORCE                      0.817       TIME AVG. FORCE       0.417    
 LARGEST RESIDUAL FORCE            -2.220E-16   AT NODE          2   DOF  1
 LARGEST INCREMENT OF DISP.        -4.000E-04   AT NODE          2   DOF  1
 LARGEST CORRECTION TO DISP.        3.089E-17   AT NODE          7   DOF  1
          THE FORCE     EQUILIBRIUM RESPONSE WAS LINEAR IN THIS INCREMENT

 ITERATION SUMMARY FOR THE INCREMENT:   1 TOTAL ITERATIONS, OF WHICH
   0 ARE SEVERE DISCONTINUITY ITERATIONS AND  1 ARE EQUILIBRIUM ITERATIONS.

 TIME INCREMENT COMPLETED  2.000E-02,  FRACTION OF STEP COMPLETED  0.653    
 STEP TIME COMPLETED       0.653    ,  TOTAL TIME COMPLETED        0.653    


  INCREMENT    34 STARTS. ATTEMPT NUMBER  1, TIME INCREMENT  2.000E-02

  NUMBER OF EQUATIONS =        24     NUMBER OF RHS =    1
  NUMBER OF FLOATING PT. OPERATIONS =  9.25E+03

     CHECK POINT   START OF SOLVER    

     CHECK POINT  END OF SOLVER       

       ELAPSED USER TIME (SEC)      =   0.0000    
       ELAPSED SYSTEM TIME (SEC)    =   0.0000    
       ELAPSED TOTAL CPU TIME (SEC) =   0.0000    
       ELAPSED WALLCLOCK TIME (SEC) =          0

               CONVERGENCE CHECKS FOR EQUILIBRIUM ITERATION     1


 AVERAGE FORCE                      0.842       TIME AVG. FORCE       0.429    
 LARGEST RESIDUAL FORCE            -2.220E-16   AT NODE          2   DOF  1
 LARGEST INCREMENT OF DISP.        -4.000E-04   AT NODE          6   DOF  1
 LARGEST CORRECTION TO DISP.        4.450E-17   AT NODE          2   DOF  1
          THE FORCE     EQUILIBRIUM RESPONSE WAS LINEAR IN THIS INCREMENT

 ITERATION SUMMARY FOR THE INCREMENT:   1 TOTAL ITERATIONS, OF WHICH
   0 ARE SEVERE DISCONTINUITY ITERATIONS AND  1 ARE EQUILIBRIUM ITERATIONS.

 TIME INCREMENT COMPLETED  2.000E-02,  FRACTION OF STEP COMPLETED  0.673    
 STEP TIME COMPLETED       0.673    ,  TOTAL TIME COMPLETED        0.673    


  INCREMENT    35 STARTS. ATTEMPT NUMBER  1, TIME INCREMENT  2.000E-02

  NUMBER OF EQUATIONS =        24     NUMBER OF RHS =    1
  NUMBER OF FLOATING PT. OPERATIONS =  9.25E+03

     CHECK POINT   START OF SOLVER    

     CHECK POINT  END OF SOLVER       

       ELAPSED USER TIME (SEC)      =   0.0000    
       ELAPSED SYSTEM TIME (SEC)    =   0.0000    
       ELAPSED TOTAL CPU TIME (SEC) =   0.0000    
       ELAPSED WALLCLOCK TIME (SEC) =          0

               CONVERGENCE CHECKS FOR EQUILIBRIUM ITERATION     1


 AVERAGE FORCE                      0.867       TIME AVG. FORCE       0.442    
 LARGEST RESIDUAL FORCE            -3.331E-16   AT NODE          3   DOF  2
 LARGEST INCREMENT OF DISP.        -4.000E-04   AT NODE          7   DOF  1
 LARGEST CORRECTION TO DISP.        3.116E-17   AT NODE          6   DOF  1
          THE FORCE     EQUILIBRIUM RESPONSE WAS LINEAR IN THIS INCREMENT

 ITERATION SUMMARY FOR THE INCREMENT:   1 TOTAL ITERATIONS, OF WHICH
   0 ARE SEVERE DISCONTINUITY ITERATIONS AND  1 ARE EQUILIBRIUM ITERATIONS.

 TIME INCREMENT COMPLETED  2.000E-02,  FRACTION OF STEP COMPLETED  0.693    
 STEP TIME COMPLETED       0.693    ,  TOTAL TIME COMPLETED        0.693    


  INCREMENT    36 STARTS. ATTEMPT NUMBER  1, TIME INCREMENT  2.000E-02

  NUMBER OF EQUATIONS =        24     NUMBER OF RHS =    1
  NUMBER OF FLOATING PT. OPERATIONS =  9.25E+03

     CHECK POINT   START OF SOLVER    

     CHECK POINT  END OF SOLVER       

       ELAPSED USER TIME (SEC)      =   0.0000    
       ELAPSED SYSTEM TIME (SEC)    =   0.0000    
       ELAPSED TOTAL CPU TIME (SEC) =   0.0000    
       ELAPSED WALLCLOCK TIME (SEC) =          0

               CONVERGENCE CHECKS FOR EQUILIBRIUM ITERATION     1


 AVERAGE FORCE                      0.892       TIME AVG. FORCE       0.454    
 LARGEST RESIDUAL FORCE            -2.220E-16   AT NODE          3   DOF  1
 LARGEST INCREMENT OF DISP.        -4.000E-04   AT NODE          7   DOF  1
 LARGEST CORRECTION TO DISP.       -4.529E-17   AT NODE          3   DOF  2
          THE FORCE     EQUILIBRIUM RESPONSE WAS LINEAR IN THIS INCREMENT

 ITERATION SUMMARY FOR THE INCREMENT:   1 TOTAL ITERATIONS, OF WHICH
   0 ARE SEVERE DISCONTINUITY ITERATIONS AND  1 ARE EQUILIBRIUM ITERATIONS.

 TIME INCREMENT COMPLETED  2.000E-02,  FRACTION OF STEP COMPLETED  0.713    
 STEP TIME COMPLETED       0.713    ,  TOTAL TIME COMPLETED        0.713    


  INCREMENT    37 STARTS. ATTEMPT NUMBER  1, TIME INCREMENT  2.000E-02

  NUMBER OF EQUATIONS =        24     NUMBER OF RHS =    1
  NUMBER OF FLOATING PT. OPERATIONS =  9.25E+03

     CHECK POINT   START OF SOLVER    

     CHECK POINT  END OF SOLVER       

       ELAPSED USER TIME (SEC)      =   0.0000    
       ELAPSED SYSTEM TIME (SEC)    =   0.0000    
       ELAPSED TOTAL CPU TIME (SEC) =   0.0000    
       ELAPSED WALLCLOCK TIME (SEC) =          0

               CONVERGENCE CHECKS FOR EQUILIBRIUM ITERATION     1


 AVERAGE FORCE                      0.917       TIME AVG. FORCE       0.467    
 LARGEST RESIDUAL FORCE            -3.331E-16   AT NODE          3   DOF  1
 LARGEST INCREMENT OF DISP.        -4.000E-04   AT NODE          4   DOF  2
 LARGEST CORRECTION TO DISP.        4.472E-17   AT NODE          2   DOF  1
          THE FORCE     EQUILIBRIUM RESPONSE WAS LINEAR IN THIS INCREMENT

 ITERATION SUMMARY FOR THE INCREMENT:   1 TOTAL ITERATIONS, OF WHICH
   0 ARE SEVERE DISCONTINUITY ITERATIONS AND  1 ARE EQUILIBRIUM ITERATIONS.

 TIME INCREMENT COMPLETED  2.000E-02,  FRACTION OF STEP COMPLETED  0.733    
 STEP TIME COMPLETED       0.733    ,  TOTAL TIME COMPLETED        0.733    


  INCREMENT    38 STARTS. ATTEMPT NUMBER  1, TIME INCREMENT  2.000E-02

  NUMBER OF EQUATIONS =        24     NUMBER OF RHS =    1
  NUMBER OF FLOATING PT. OPERATIONS =  9.25E+03

     CHECK POINT   START OF SOLVER    

     CHECK POINT  END OF SOLVER       

       ELAPSED USER TIME (SEC)      =   0.0000    
       ELAPSED SYSTEM TIME (SEC)    =   0.0000    
       ELAPSED TOTAL CPU TIME (SEC) =   0.0000    
       ELAPSED WALLCLOCK TIME (SEC) =          0

               CONVERGENCE CHECKS FOR EQUILIBRIUM ITERATION     1


 AVERAGE FORCE                      0.942       TIME AVG. FORCE       0.479    
 LARGEST RESIDUAL FORCE             3.331E-16   AT NODE          4   DOF  2
 LARGEST INCREMENT OF DISP.        -4.000E-04   AT NODE          3   DOF  1
 LARGEST CORRECTION TO DISP.       -3.676E-17   AT NODE          3   DOF  1
          THE FORCE     EQUILIBRIUM RESPONSE WAS LINEAR IN THIS INCREMENT

 ITERATION SUMMARY FOR THE INCREMENT:   1 TOTAL ITERATIONS, OF WHICH
   0 ARE SEVERE DISCONTINUITY ITERATIONS AND  1 ARE EQUILIBRIUM ITERATIONS.

 TIME INCREMENT COMPLETED  2.000E-02,  FRACTION OF STEP COMPLETED  0.753    
 STEP TIME COMPLETED       0.753    ,  TOTAL TIME COMPLETED        0.753    


  INCREMENT    39 STARTS. ATTEMPT NUMBER  1, TIME INCREMENT  2.000E-02

  NUMBER OF EQUATIONS =        24     NUMBER OF RHS =    1
  NUMBER OF FLOATING PT. OPERATIONS =  9.25E+03

     CHECK POINT   START OF SOLVER    

     CHECK POINT  END OF SOLVER       

       ELAPSED USER TIME (SEC)      =   0.0000    
       ELAPSED SYSTEM TIME (SEC)    =   0.0000    
       ELAPSED TOTAL CPU TIME (SEC) =   0.0000    
       ELAPSED WALLCLOCK TIME (SEC) =          0

               CONVERGENCE CHECKS FOR EQUILIBRIUM ITERATION     1


 AVERAGE FORCE                      0.967       TIME AVG. FORCE       0.492    
 LARGEST RESIDUAL FORCE            -1.110E-16   AT NODE          3   DOF  1
 LARGEST INCREMENT OF DISP.        -4.000E-04   AT NODE          7   DOF  2
 LARGEST CORRECTION TO DISP.       -4.485E-17   AT NODE          7   DOF  2
          THE FORCE     EQUILIBRIUM RESPONSE WAS LINEAR IN THIS INCREMENT

 ITERATION SUMMARY FOR THE INCREMENT:   1 TOTAL ITERATIONS, OF WHICH
   0 ARE SEVERE DISCONTINUITY ITERATIONS AND  1 ARE EQUILIBRIUM ITERATIONS.

 TIME INCREMENT COMPLETED  2.000E-02,  FRACTION OF STEP COMPLETED  0.773    
 STEP TIME COMPLETED       0.773    ,  TOTAL TIME COMPLETED        0.773    


  INCREMENT    40 STARTS. ATTEMPT NUMBER  1, TIME INCREMENT  2.000E-02

  NUMBER OF EQUATIONS =        24     NUMBER OF RHS =    1
  NUMBER OF FLOATING PT. OPERATIONS =  9.25E+03

     CHECK POINT   START OF SOLVER    

     CHECK POINT  END OF SOLVER       

       ELAPSED USER TIME (SEC)      =   0.0000    
       ELAPSED SYSTEM TIME (SEC)    =   0.0000    
       ELAPSED TOTAL CPU TIME (SEC) =   0.0000    
       ELAPSED WALLCLOCK TIME (SEC) =          0

               CONVERGENCE CHECKS FOR EQUILIBRIUM ITERATION     1


 AVERAGE FORCE                      0.992       TIME AVG. FORCE       0.504    
 LARGEST RESIDUAL FORCE             3.331E-16   AT NODE          3   DOF  1
 LARGEST INCREMENT OF DISP.        -4.000E-04   AT NODE          8   DOF  2
 LARGEST CORRECTION TO DISP.       -5.578E-17   AT NODE          8   DOF  2
          THE FORCE     EQUILIBRIUM RESPONSE WAS LINEAR IN THIS INCREMENT

 ITERATION SUMMARY FOR THE INCREMENT:   1 TOTAL ITERATIONS, OF WHICH
   0 ARE SEVERE DISCONTINUITY ITERATIONS AND  1 ARE EQUILIBRIUM ITERATIONS.

 TIME INCREMENT COMPLETED  2.000E-02,  FRACTION OF STEP COMPLETED  0.793    
 STEP TIME COMPLETED       0.793    ,  TOTAL TIME COMPLETED        0.793    


  INCREMENT    41 STARTS. ATTEMPT NUMBER  1, TIME INCREMENT  2.000E-02

  NUMBER OF EQUATIONS =        24     NUMBER OF RHS =    1
  NUMBER OF FLOATING PT. OPERATIONS =  9.25E+03

     CHECK POINT   START OF SOLVER    

     CHECK POINT  END OF SOLVER       

       ELAPSED USER TIME (SEC)      =   0.0000    
       ELAPSED SYSTEM TIME (SEC)    =   0.0000    
       ELAPSED TOTAL CPU TIME (SEC) =   0.0000    
       ELAPSED WALLCLOCK TIME (SEC) =          0

               CONVERGENCE CHECKS FOR EQUILIBRIUM ITERATION     1


 AVERAGE FORCE                       1.02       TIME AVG. FORCE       0.517    
 LARGEST RESIDUAL FORCE            -2.220E-16   AT NODE          3   DOF  2
 LARGEST INCREMENT OF DISP.        -4.000E-04   AT NODE          2   DOF  1
 LARGEST CORRECTION TO DISP.        3.676E-17   AT NODE          8   DOF  2
          THE FORCE     EQUILIBRIUM RESPONSE WAS LINEAR IN THIS INCREMENT

 ITERATION SUMMARY FOR THE INCREMENT:   1 TOTAL ITERATIONS, OF WHICH
   0 ARE SEVERE DISCONTINUITY ITERATIONS AND  1 ARE EQUILIBRIUM ITERATIONS.

 TIME INCREMENT COMPLETED  2.000E-02,  FRACTION OF STEP COMPLETED  0.813    
 STEP TIME COMPLETED       0.813    ,  TOTAL TIME COMPLETED        0.813    


  INCREMENT    42 STARTS. ATTEMPT NUMBER  1, TIME INCREMENT  2.000E-02

  NUMBER OF EQUATIONS =        24     NUMBER OF RHS =    1
  NUMBER OF FLOATING PT. OPERATIONS =  9.25E+03

     CHECK POINT   START OF SOLVER    

     CHECK POINT  END OF SOLVER       

       ELAPSED USER TIME (SEC)      =   0.0000    
       ELAPSED SYSTEM TIME (SEC)    =   0.0000    
       ELAPSED TOTAL CPU TIME (SEC) =   0.0000    
       ELAPSED WALLCLOCK TIME (SEC) =          0

               CONVERGENCE CHECKS FOR EQUILIBRIUM ITERATION     1


 AVERAGE FORCE                       1.04       TIME AVG. FORCE       0.529    
 LARGEST RESIDUAL FORCE            -2.220E-16   AT NODE          2   DOF  1
 LARGEST INCREMENT OF DISP.        -4.000E-04   AT NODE          6   DOF  1
 LARGEST CORRECTION TO DISP.        6.016E-17   AT NODE          2   DOF  1
          THE FORCE     EQUILIBRIUM RESPONSE WAS LINEAR IN THIS INCREMENT

 ITERATION SUMMARY FOR THE INCREMENT:   1 TOTAL ITERATIONS, OF WHICH
   0 ARE SEVERE DISCONTINUITY ITERATIONS AND  1 ARE EQUILIBRIUM ITERATIONS.

 TIME INCREMENT COMPLETED  2.000E-02,  FRACTION OF STEP COMPLETED  0.833    
 STEP TIME COMPLETED       0.833    ,  TOTAL TIME COMPLETED        0.833    


  INCREMENT    43 STARTS. ATTEMPT NUMBER  1, TIME INCREMENT  2.000E-02

  NUMBER OF EQUATIONS =        24     NUMBER OF RHS =    1
  NUMBER OF FLOATING PT. OPERATIONS =  9.25E+03

     CHECK POINT   START OF SOLVER    

     CHECK POINT  END OF SOLVER       

       ELAPSED USER TIME (SEC)      =   0.0000    
       ELAPSED SYSTEM TIME (SEC)    =   0.0000    
       ELAPSED TOTAL CPU TIME (SEC) =   0.0000    
       ELAPSED WALLCLOCK TIME (SEC) =          0

               CONVERGENCE CHECKS FOR EQUILIBRIUM ITERATION     1


 AVERAGE FORCE                       1.07       TIME AVG. FORCE       0.542    
 LARGEST RESIDUAL FORCE            -4.441E-16   AT NODE          3   DOF  1
 LARGEST INCREMENT OF DISP.        -4.000E-04   AT NODE          2   DOF  1
 LARGEST CORRECTION TO DISP.       -8.606E-17   AT NODE          2   DOF  1
          THE FORCE     EQUILIBRIUM RESPONSE WAS LINEAR IN THIS INCREMENT

 ITERATION SUMMARY FOR THE INCREMENT:   1 TOTAL ITERATIONS, OF WHICH
   0 ARE SEVERE DISCONTINUITY ITERATIONS AND  1 ARE EQUILIBRIUM ITERATIONS.

 TIME INCREMENT COMPLETED  2.000E-02,  FRACTION OF STEP COMPLETED  0.853    
 STEP TIME COMPLETED       0.853    ,  TOTAL TIME COMPLETED        0.853    


  INCREMENT    44 STARTS. ATTEMPT NUMBER  1, TIME INCREMENT  2.000E-02

  NUMBER OF EQUATIONS =        24     NUMBER OF RHS =    1
  NUMBER OF FLOATING PT. OPERATIONS =  9.25E+03

     CHECK POINT   START OF SOLVER    

     CHECK POINT  END OF SOLVER       

       ELAPSED USER TIME (SEC)      =   0.0000    
       ELAPSED SYSTEM TIME (SEC)    =   0.0000    
       ELAPSED TOTAL CPU TIME (SEC) =   0.0000    
       ELAPSED WALLCLOCK TIME (SEC) =          0

               CONVERGENCE CHECKS FOR EQUILIBRIUM ITERATION     1


 AVERAGE FORCE                       1.09       TIME AVG. FORCE       0.554    
 LARGEST RESIDUAL FORCE             2.220E-16   AT NODE          2   DOF  1
 LARGEST INCREMENT OF DISP.        -4.000E-04   AT NODE          3   DOF  1
 LARGEST CORRECTION TO DISP.        8.176E-17   AT NODE          2   DOF  1
          THE FORCE     EQUILIBRIUM RESPONSE WAS LINEAR IN THIS INCREMENT

 ITERATION SUMMARY FOR THE INCREMENT:   1 TOTAL ITERATIONS, OF WHICH
   0 ARE SEVERE DISCONTINUITY ITERATIONS AND  1 ARE EQUILIBRIUM ITERATIONS.

 TIME INCREMENT COMPLETED  2.000E-02,  FRACTION OF STEP COMPLETED  0.873    
 STEP TIME COMPLETED       0.873    ,  TOTAL TIME COMPLETED        0.873    


  INCREMENT    45 STARTS. ATTEMPT NUMBER  1, TIME INCREMENT  2.000E-02

  NUMBER OF EQUATIONS =        24     NUMBER OF RHS =    1
  NUMBER OF FLOATING PT. OPERATIONS =  9.25E+03

     CHECK POINT   START OF SOLVER    

     CHECK POINT  END OF SOLVER       

       ELAPSED USER TIME (SEC)      =   0.0000    
       ELAPSED SYSTEM TIME (SEC)    =   0.0000    
       ELAPSED TOTAL CPU TIME (SEC) =   0.0000    
       ELAPSED WALLCLOCK TIME (SEC) =          0

               CONVERGENCE CHECKS FOR EQUILIBRIUM ITERATION     1


 AVERAGE FORCE                       1.12       TIME AVG. FORCE       0.567    
 LARGEST RESIDUAL FORCE             4.441E-16   AT NODE          6   DOF  1
 LARGEST INCREMENT OF DISP.        -4.000E-04   AT NODE          2   DOF  1
 LARGEST CORRECTION TO DISP.       -8.521E-17   AT NODE          2   DOF  1
          THE FORCE     EQUILIBRIUM RESPONSE WAS LINEAR IN THIS INCREMENT

 ITERATION SUMMARY FOR THE INCREMENT:   1 TOTAL ITERATIONS, OF WHICH
   0 ARE SEVERE DISCONTINUITY ITERATIONS AND  1 ARE EQUILIBRIUM ITERATIONS.

 TIME INCREMENT COMPLETED  2.000E-02,  FRACTION OF STEP COMPLETED  0.893    
 STEP TIME COMPLETED       0.893    ,  TOTAL TIME COMPLETED        0.893    


  INCREMENT    46 STARTS. ATTEMPT NUMBER  1, TIME INCREMENT  2.000E-02

  NUMBER OF EQUATIONS =        24     NUMBER OF RHS =    1
  NUMBER OF FLOATING PT. OPERATIONS =  9.25E+03

     CHECK POINT   START OF SOLVER    

     CHECK POINT  END OF SOLVER       

       ELAPSED USER TIME (SEC)      =   0.0000    
       ELAPSED SYSTEM TIME (SEC)    =   0.0000    
       ELAPSED TOTAL CPU TIME (SEC) =   0.0000    
       ELAPSED WALLCLOCK TIME (SEC) =          0

               CONVERGENCE CHECKS FOR EQUILIBRIUM ITERATION     1


 AVERAGE FORCE                       1.14       TIME AVG. FORCE       0.579    
 LARGEST RESIDUAL FORCE            -4.441E-16   AT NODE          3   DOF  1
 LARGEST INCREMENT OF DISP.        -4.000E-04   AT NODE          3   DOF  2
 LARGEST CORRECTION TO DISP.        7.934E-17   AT NODE          2   DOF  1
          THE FORCE     EQUILIBRIUM RESPONSE WAS LINEAR IN THIS INCREMENT

 ITERATION SUMMARY FOR THE INCREMENT:   1 TOTAL ITERATIONS, OF WHICH
   0 ARE SEVERE DISCONTINUITY ITERATIONS AND  1 ARE EQUILIBRIUM ITERATIONS.

 TIME INCREMENT COMPLETED  2.000E-02,  FRACTION OF STEP COMPLETED  0.913    
 STEP TIME COMPLETED       0.913    ,  TOTAL TIME COMPLETED        0.913    


  INCREMENT    47 STARTS. ATTEMPT NUMBER  1, TIME INCREMENT  2.000E-02

  NUMBER OF EQUATIONS =        24     NUMBER OF RHS =    1
  NUMBER OF FLOATING PT. OPERATIONS =  9.25E+03

     CHECK POINT   START OF SOLVER    

     CHECK POINT  END OF SOLVER       

       ELAPSED USER TIME (SEC)      =   0.0000    
       ELAPSED SYSTEM TIME (SEC)    =   0.0000    
       ELAPSED TOTAL CPU TIME (SEC) =   0.0000    
       ELAPSED WALLCLOCK TIME (SEC) =          0

               CONVERGENCE CHECKS FOR EQUILIBRIUM ITERATION     1


 AVERAGE FORCE                       1.17       TIME AVG. FORCE       0.592    
 LARGEST RESIDUAL FORCE             4.441E-16   AT NODE          2   DOF  1
 LARGEST INCREMENT OF DISP.        -4.000E-04   AT NODE          7   DOF  1
 LARGEST CORRECTION TO DISP.        7.260E-17   AT NODE          3   DOF  2
          THE FORCE     EQUILIBRIUM RESPONSE WAS LINEAR IN THIS INCREMENT

 ITERATION SUMMARY FOR THE INCREMENT:   1 TOTAL ITERATIONS, OF WHICH
   0 ARE SEVERE DISCONTINUITY ITERATIONS AND  1 ARE EQUILIBRIUM ITERATIONS.

 TIME INCREMENT COMPLETED  2.000E-02,  FRACTION OF STEP COMPLETED  0.933    
 STEP TIME COMPLETED       0.933    ,  TOTAL TIME COMPLETED        0.933    


  INCREMENT    48 STARTS. ATTEMPT NUMBER  1, TIME INCREMENT  2.000E-02

  NUMBER OF EQUATIONS =        24     NUMBER OF RHS =    1
  NUMBER OF FLOATING PT. OPERATIONS =  9.25E+03

     CHECK POINT   START OF SOLVER    

     CHECK POINT  END OF SOLVER       

       ELAPSED USER TIME (SEC)      =   0.0000    
       ELAPSED SYSTEM TIME (SEC)    =   0.0000    
       ELAPSED TOTAL CPU TIME (SEC) =   0.0000    
       ELAPSED WALLCLOCK TIME (SEC) =          0

               CONVERGENCE CHECKS FOR EQUILIBRIUM ITERATION     1


 AVERAGE FORCE                       1.19       TIME AVG. FORCE       0.604    
 LARGEST RESIDUAL FORCE             4.441E-16   AT NODE          7   DOF  2
 LARGEST INCREMENT OF DISP.        -4.000E-04   AT NODE          3   DOF  2
 LARGEST CORRECTION TO DISP.       -7.442E-17   AT NODE          3   DOF  2
          THE FORCE     EQUILIBRIUM RESPONSE WAS LINEAR IN THIS INCREMENT

 ITERATION SUMMARY FOR THE INCREMENT:   1 TOTAL ITERATIONS, OF WHICH
   0 ARE SEVERE DISCONTINUITY ITERATIONS AND  1 ARE EQUILIBRIUM ITERATIONS.

 TIME INCREMENT COMPLETED  2.000E-02,  FRACTION OF STEP COMPLETED  0.953    
 STEP TIME COMPLETED       0.953    ,  TOTAL TIME COMPLETED        0.953    


  INCREMENT    49 STARTS. ATTEMPT NUMBER  1, TIME INCREMENT  2.000E-02

  NUMBER OF EQUATIONS =        24     NUMBER OF RHS =    1
  NUMBER OF FLOATING PT. OPERATIONS =  9.25E+03

     CHECK POINT   START OF SOLVER    

     CHECK POINT  END OF SOLVER       

       ELAPSED USER TIME (SEC)      =   0.0000    
       ELAPSED SYSTEM TIME (SEC)    =   0.0000    
       ELAPSED TOTAL CPU TIME (SEC) =   0.0000    
       ELAPSED WALLCLOCK TIME (SEC) =          0

               CONVERGENCE CHECKS FOR EQUILIBRIUM ITERATION     1


 AVERAGE FORCE                       1.22       TIME AVG. FORCE       0.617    
 LARGEST RESIDUAL FORCE            -2.220E-16   AT NODE          2   DOF  1
 LARGEST INCREMENT OF DISP.        -4.000E-04   AT NODE          7   DOF  1
 LARGEST CORRECTION TO DISP.        6.315E-17   AT NODE          3   DOF  2
          THE FORCE     EQUILIBRIUM RESPONSE WAS LINEAR IN THIS INCREMENT

 ITERATION SUMMARY FOR THE INCREMENT:   1 TOTAL ITERATIONS, OF WHICH
   0 ARE SEVERE DISCONTINUITY ITERATIONS AND  1 ARE EQUILIBRIUM ITERATIONS.

 TIME INCREMENT COMPLETED  2.000E-02,  FRACTION OF STEP COMPLETED  0.973    
 STEP TIME COMPLETED       0.973    ,  TOTAL TIME COMPLETED        0.973    


  INCREMENT    50 STARTS. ATTEMPT NUMBER  1, TIME INCREMENT  2.000E-02

  NUMBER OF EQUATIONS =        24     NUMBER OF RHS =    1
  NUMBER OF FLOATING PT. OPERATIONS =  9.25E+03

     CHECK POINT   START OF SOLVER    

     CHECK POINT  END OF SOLVER       

       ELAPSED USER TIME (SEC)      =   0.0000    
       ELAPSED SYSTEM TIME (SEC)    =   0.0000    
       ELAPSED TOTAL CPU TIME (SEC) =   0.0000    
       ELAPSED WALLCLOCK TIME (SEC) =          0

               CONVERGENCE CHECKS FOR EQUILIBRIUM ITERATION     1


 AVERAGE FORCE                       1.24       TIME AVG. FORCE       0.629    
 LARGEST RESIDUAL FORCE            -4.441E-16   AT NODE          6   DOF  1
 LARGEST INCREMENT OF DISP.        -4.000E-04   AT NODE          7   DOF  1
 LARGEST CORRECTION TO DISP.       -5.391E-17   AT NODE          3   DOF  2
          THE FORCE     EQUILIBRIUM RESPONSE WAS LINEAR IN THIS INCREMENT

 ITERATION SUMMARY FOR THE INCREMENT:   1 TOTAL ITERATIONS, OF WHICH
   0 ARE SEVERE DISCONTINUITY ITERATIONS AND  1 ARE EQUILIBRIUM ITERATIONS.

 TIME INCREMENT COMPLETED  2.000E-02,  FRACTION OF STEP COMPLETED  0.993    
 STEP TIME COMPLETED       0.993    ,  TOTAL TIME COMPLETED        0.993    


  INCREMENT    51 STARTS. ATTEMPT NUMBER  1, TIME INCREMENT  6.667E-03

  NUMBER OF EQUATIONS =        24     NUMBER OF RHS =    1
  NUMBER OF FLOATING PT. OPERATIONS =  9.25E+03

     CHECK POINT   START OF SOLVER    

     CHECK POINT  END OF SOLVER       

       ELAPSED USER TIME (SEC)      =   0.0000    
       ELAPSED SYSTEM TIME (SEC)    =   0.0000    
       ELAPSED TOTAL CPU TIME (SEC) =   0.0000    
       ELAPSED WALLCLOCK TIME (SEC) =          0

               CONVERGENCE CHECKS FOR EQUILIBRIUM ITERATION     1


 AVERAGE FORCE                       1.25       TIME AVG. FORCE       0.641    
 LARGEST RESIDUAL FORCE             4.441E-16   AT NODE          2   DOF  1
 LARGEST INCREMENT OF DISP.        -1.333E-04   AT NODE          6   DOF  1
 LARGEST CORRECTION TO DISP.        7.355E-17   AT NODE          7   DOF  1
          THE FORCE     EQUILIBRIUM RESPONSE WAS LINEAR IN THIS INCREMENT

 ITERATION SUMMARY FOR THE INCREMENT:   1 TOTAL ITERATIONS, OF WHICH
   0 ARE SEVERE DISCONTINUITY ITERATIONS AND  1 ARE EQUILIBRIUM ITERATIONS.

 TIME INCREMENT COMPLETED  6.667E-03,  FRACTION OF STEP COMPLETED   1.00    
 STEP TIME COMPLETED        1.00    ,  TOTAL TIME COMPLETED         1.00    
1

   Abaqus 3DEXPERIENCE R2018x                                  Date 18-Jun-2019   Time 10:51:34
   For use by SIMPSON GUMPERTZ AND HEGER INC under license from Dassault Systemes or its subsidiary.

 ABAQUS Static Analysis Set                                                      
 Shearing                                                                        
 STEP    2     INCREMENT     1     STEP TIME    0.00    


                        S T E P       2     S T A T I C   A N A L Y S I S


          Shearing                                                                        

     AUTOMATIC TIME CONTROL WITH -
          A SUGGESTED INITIAL TIME INCREMENT OF                1.667E-02
          AND A TOTAL TIME PERIOD OF                            1.00    
          THE MINIMUM TIME INCREMENT ALLOWED IS                1.000E-12
          THE MAXIMUM TIME INCREMENT ALLOWED IS                2.000E-02

     LINEAR EQUATION SOLVER TYPE         DIRECT SPARSE

 CONVERGENCE TOLERANCE PARAMETERS FOR FORCE    
     CRITERION FOR RESIDUAL FORCE     FOR A NONLINEAR PROBLEM          5.000E-03
     CRITERION FOR DISP.    CORRECTION IN A NONLINEAR PROBLEM          1.000E-02
     INIT. VALUE OF TIME AVG. FORCE     IS TIME AVG. FORCE     IN PREVIOUS STEP
     AVERAGE FORCE     IS TIME AVERAGE FORCE    
     ALTERNATE CRIT. FOR RESIDUAL FORCE     FOR A NONLINEAR PROBLEM    2.000E-02
     CRITERION FOR ZERO FORCE     RELATIVE TO TIME AVRG. FORCE         1.000E-05
     CRITERION FOR RESIDUAL FORCE     WHEN THERE IS ZERO FLUX          1.000E-05
     CRITERION FOR DISP.    CORRECTION WHEN THERE IS ZERO FLUX         1.000E-03
     CRITERION FOR RESIDUAL FORCE     FOR A LINEAR INCREMENT           1.000E-08
     FIELD CONVERSION RATIO                                             1.00    
     CRITERION FOR ZERO FORCE     REL. TO TIME AVRG. MAX. FORCE        1.000E-05
     CRITERION FOR ZERO DISP.    RELATIVE TO CHARACTERISTIC LENGTH     1.000E-08

     VOLUMETRIC STRAIN COMPATIBILITY TOLERANCE FOR HYBRID SOLIDS       1.000E-05
     AXIAL STRAIN COMPATIBILITY TOLERANCE FOR HYBRID BEAMS             1.000E-05
     TRANS. SHEAR STRAIN COMPATIBILITY TOLERANCE FOR HYBRID BEAMS      1.000E-05
     SOFT CONTACT CONSTRAINT COMPATIBILITY TOLERANCE FOR P>P0          5.000E-03
     SOFT CONTACT CONSTRAINT COMPATIBILITY TOLERANCE FOR P=0.0         0.100    
     CONTACT FORCE ERROR TOLERANCE FOR CONVERT SDI=YES                 1.00    
     DISPLACEMENT COMPATIBILITY TOLERANCE FOR DCOUP ELEMENTS           1.000E-05
     ROTATION COMPATIBILITY TOLERANCE FOR DCOUP ELEMENTS               1.000E-05

 EQUILIBRIUM WILL BE CHECKED FOR SEVERE DISCONTINUITY ITERATIONS

 TIME INCREMENTATION CONTROL PARAMETERS:
     FIRST EQUILIBRIUM ITERATION FOR CONSECUTIVE DIVERGENCE CHECK              4
     EQUILIBRIUM ITERATION AT WHICH LOG. CONVERGENCE RATE CHECK BEGINS         8
     EQUILIBRIUM ITERATION AFTER WHICH ALTERNATE RESIDUAL IS USED              9
     MAXIMUM EQUILIBRIUM ITERATIONS ALLOWED                                   16
     EQUILIBRIUM ITERATION COUNT FOR CUT-BACK IN NEXT INCREMENT               10
     MAXIMUM EQUILIB. ITERS IN TWO INCREMENTS FOR TIME INCREMENT INCREASE      4
     MAXIMUM ITERATIONS FOR SEVERE DISCONTINUITIES                            50
     MAXIMUM ATTEMPTS ALLOWED IN AN INCREMENT                                  5
     MAXIMUM DISCON. ITERS IN TWO INCREMENTS FOR TIME INCREMENT INCREASE      50
     MAXIMUM CONTACT AUGMENTATIONS FOR *SURFACE BEHAVIOR,AUGMENTED LAGRANGE   50
     CUT-BACK FACTOR AFTER DIVERGENCE                                 0.2500    
     CUT-BACK FACTOR FOR TOO SLOW CONVERGENCE                         0.5000    
     CUT-BACK FACTOR AFTER TOO MANY EQUILIBRIUM ITERATIONS            0.7500    
     CUT-BACK FACTOR AFTER TOO MANY SEVERE DISCONTINUITY ITERATIONS   0.2500    
     CUT-BACK FACTOR AFTER PROBLEMS IN ELEMENT ASSEMBLY               0.2500    
     INCREASE FACTOR AFTER TWO INCREMENTS THAT CONVERGE QUICKLY        1.500    
     MAX. TIME INCREMENT INCREASE FACTOR ALLOWED                       1.500    
     MAX. TIME INCREMENT INCREASE FACTOR ALLOWED (DYNAMICS)            1.250    
     MAX. TIME INCREMENT INCREASE FACTOR ALLOWED (DIFFUSION)           2.000    
     MINIMUM TIME INCREMENT RATIO FOR EXTRAPOLATION TO OCCUR          0.1000    
     MAX. RATIO OF TIME INCREMENT TO STABILITY LIMIT                   1.000    
     FRACTION OF STABILITY LIMIT FOR NEW TIME INCREMENT               0.9500    
     TIME INCREMENT INCREASE FACTOR BEFORE A TIME POINT                1.000    
     GLOBAL STABILIZATION CONTROL IS NOT USED

          PRINT OF INCREMENT NUMBER, TIME, ETC., EVERY    1  INCREMENTS

     THE MAXIMUM NUMBER OF INCREMENTS IN THIS STEP IS                 *******

          UNSYMMETRIC MATRIX STORAGE AND SOLUTION WILL BE USED

     LINEAR EXTRAPOLATION WILL BE USED

     CHARACTERISTIC ELEMENT LENGTH      1.00    

     DETAILS REGARDING ACTUAL SOLUTION WAVEFRONT REQUESTED

     DETAILED OUTPUT OF DIAGNOSTICS TO DATABASE REQUESTED

     PRINT OF INCREMENT NUMBER, TIME, ETC., TO THE MESSAGE FILE EVERY     1  INCREMENTS

     COLLECTING STEP CONSTRAINT INFORMATION FOR OVERCONSTRAINT CHECKS


  INCREMENT     1 STARTS. ATTEMPT NUMBER  1, TIME INCREMENT  1.667E-02

  NUMBER OF EQUATIONS =        24     NUMBER OF RHS =    1
  NUMBER OF FLOATING PT. OPERATIONS =  9.25E+03

     CHECK POINT   START OF SOLVER    

     CHECK POINT  END OF SOLVER       

       ELAPSED USER TIME (SEC)      =   0.0000    
       ELAPSED SYSTEM TIME (SEC)    =   0.0000    
       ELAPSED TOTAL CPU TIME (SEC) =   0.0000    
       ELAPSED WALLCLOCK TIME (SEC) =          0

               CONVERGENCE CHECKS FOR EQUILIBRIUM ITERATION     1


 AVERAGE FORCE                       1.26       TIME AVG. FORCE        1.26    
 LARGEST RESIDUAL FORCE            -2.220E-16   AT NODE          2   DOF  1
 LARGEST INCREMENT OF DISP.        -1.667E-03   AT NODE          5   DOF  3
 LARGEST CORRECTION TO DISP.       -1.667E-03   AT NODE          5   DOF  3
          THE FORCE     EQUILIBRIUM RESPONSE WAS LINEAR IN THIS INCREMENT

 ITERATION SUMMARY FOR THE INCREMENT:   1 TOTAL ITERATIONS, OF WHICH
   0 ARE SEVERE DISCONTINUITY ITERATIONS AND  1 ARE EQUILIBRIUM ITERATIONS.

 TIME INCREMENT COMPLETED  1.667E-02,  FRACTION OF STEP COMPLETED  1.667E-02
 STEP TIME COMPLETED       1.667E-02,  TOTAL TIME COMPLETED         1.02    


  INCREMENT     2 STARTS. ATTEMPT NUMBER  1, TIME INCREMENT  1.667E-02

  NUMBER OF EQUATIONS =        24     NUMBER OF RHS =    1
  NUMBER OF FLOATING PT. OPERATIONS =  9.25E+03

     CHECK POINT   START OF SOLVER    

     CHECK POINT  END OF SOLVER       

       ELAPSED USER TIME (SEC)      =   0.0000    
       ELAPSED SYSTEM TIME (SEC)    =   0.0000    
       ELAPSED TOTAL CPU TIME (SEC) =   0.0000    
       ELAPSED WALLCLOCK TIME (SEC) =          0

               CONVERGENCE CHECKS FOR EQUILIBRIUM ITERATION     1


 AVERAGE FORCE                       1.27       TIME AVG. FORCE        1.27    
 LARGEST RESIDUAL FORCE            -2.220E-16   AT NODE          2   DOF  1
 LARGEST INCREMENT OF DISP.        -1.667E-03   AT NODE          5   DOF  3
 LARGEST CORRECTION TO DISP.       -3.245E-17   AT NODE          2   DOF  1
          THE FORCE     EQUILIBRIUM RESPONSE WAS LINEAR IN THIS INCREMENT
          TIME INCREMENT MAY NOW INCREASE TO    2.000E-02

 ITERATION SUMMARY FOR THE INCREMENT:   1 TOTAL ITERATIONS, OF WHICH
   0 ARE SEVERE DISCONTINUITY ITERATIONS AND  1 ARE EQUILIBRIUM ITERATIONS.

 TIME INCREMENT COMPLETED  1.667E-02,  FRACTION OF STEP COMPLETED  3.333E-02
 STEP TIME COMPLETED       3.333E-02,  TOTAL TIME COMPLETED         1.03    


  INCREMENT     3 STARTS. ATTEMPT NUMBER  1, TIME INCREMENT  2.000E-02

  NUMBER OF EQUATIONS =        24     NUMBER OF RHS =    1
  NUMBER OF FLOATING PT. OPERATIONS =  9.25E+03

     CHECK POINT   START OF SOLVER    

     CHECK POINT  END OF SOLVER       

       ELAPSED USER TIME (SEC)      =   0.0000    
       ELAPSED SYSTEM TIME (SEC)    =   0.0000    
       ELAPSED TOTAL CPU TIME (SEC) =   0.0000    
       ELAPSED WALLCLOCK TIME (SEC) =          0

               CONVERGENCE CHECKS FOR EQUILIBRIUM ITERATION     1


 AVERAGE FORCE                       1.28       TIME AVG. FORCE        1.27    
 LARGEST RESIDUAL FORCE             2.220E-16   AT NODE          2   DOF  1
 LARGEST INCREMENT OF DISP.        -2.000E-03   AT NODE          5   DOF  3
 LARGEST CORRECTION TO DISP.        4.642E-17   AT NODE          4   DOF  2
          THE FORCE     EQUILIBRIUM RESPONSE WAS LINEAR IN THIS INCREMENT

 ITERATION SUMMARY FOR THE INCREMENT:   1 TOTAL ITERATIONS, OF WHICH
   0 ARE SEVERE DISCONTINUITY ITERATIONS AND  1 ARE EQUILIBRIUM ITERATIONS.

 TIME INCREMENT COMPLETED  2.000E-02,  FRACTION OF STEP COMPLETED  5.333E-02
 STEP TIME COMPLETED       5.333E-02,  TOTAL TIME COMPLETED         1.05    


  INCREMENT     4 STARTS. ATTEMPT NUMBER  1, TIME INCREMENT  2.000E-02

  NUMBER OF EQUATIONS =        24     NUMBER OF RHS =    1
  NUMBER OF FLOATING PT. OPERATIONS =  9.25E+03

     CHECK POINT   START OF SOLVER    

     CHECK POINT  END OF SOLVER       

       ELAPSED USER TIME (SEC)      =   0.0000    
       ELAPSED SYSTEM TIME (SEC)    =   0.0000    
       ELAPSED TOTAL CPU TIME (SEC) =   0.0000    
       ELAPSED WALLCLOCK TIME (SEC) =          0

               CONVERGENCE CHECKS FOR EQUILIBRIUM ITERATION     1


 AVERAGE FORCE                       1.30       TIME AVG. FORCE        1.28    
 LARGEST RESIDUAL FORCE            -2.220E-16   AT NODE          2   DOF  1
 LARGEST INCREMENT OF DISP.        -2.000E-03   AT NODE          5   DOF  3
 LARGEST CORRECTION TO DISP.        6.292E-17   AT NODE          2   DOF  1
          THE FORCE     EQUILIBRIUM RESPONSE WAS LINEAR IN THIS INCREMENT

 ITERATION SUMMARY FOR THE INCREMENT:   1 TOTAL ITERATIONS, OF WHICH
   0 ARE SEVERE DISCONTINUITY ITERATIONS AND  1 ARE EQUILIBRIUM ITERATIONS.

 TIME INCREMENT COMPLETED  2.000E-02,  FRACTION OF STEP COMPLETED  7.333E-02
 STEP TIME COMPLETED       7.333E-02,  TOTAL TIME COMPLETED         1.07    


  INCREMENT     5 STARTS. ATTEMPT NUMBER  1, TIME INCREMENT  2.000E-02

  NUMBER OF EQUATIONS =        24     NUMBER OF RHS =    1
  NUMBER OF FLOATING PT. OPERATIONS =  9.25E+03

     CHECK POINT   START OF SOLVER    

     CHECK POINT  END OF SOLVER       

       ELAPSED USER TIME (SEC)      =   0.0000    
       ELAPSED SYSTEM TIME (SEC)    =   0.0000    
       ELAPSED TOTAL CPU TIME (SEC) =   0.0000    
       ELAPSED WALLCLOCK TIME (SEC) =          0

               CONVERGENCE CHECKS FOR EQUILIBRIUM ITERATION     1


 AVERAGE FORCE                       1.31       TIME AVG. FORCE        1.28    
 LARGEST RESIDUAL FORCE            -4.441E-16   AT NODE          4   DOF  2
 LARGEST INCREMENT OF DISP.        -2.000E-03   AT NODE          5   DOF  3
 LARGEST CORRECTION TO DISP.       -5.886E-17   AT NODE          2   DOF  1
          THE FORCE     EQUILIBRIUM RESPONSE WAS LINEAR IN THIS INCREMENT

 ITERATION SUMMARY FOR THE INCREMENT:   1 TOTAL ITERATIONS, OF WHICH
   0 ARE SEVERE DISCONTINUITY ITERATIONS AND  1 ARE EQUILIBRIUM ITERATIONS.

 TIME INCREMENT COMPLETED  2.000E-02,  FRACTION OF STEP COMPLETED  9.333E-02
 STEP TIME COMPLETED       9.333E-02,  TOTAL TIME COMPLETED         1.09    


  INCREMENT     6 STARTS. ATTEMPT NUMBER  1, TIME INCREMENT  2.000E-02

  NUMBER OF EQUATIONS =        24     NUMBER OF RHS =    1
  NUMBER OF FLOATING PT. OPERATIONS =  9.25E+03

     CHECK POINT   START OF SOLVER    

     CHECK POINT  END OF SOLVER       

       ELAPSED USER TIME (SEC)      =   0.0000    
       ELAPSED SYSTEM TIME (SEC)    =   0.0000    
       ELAPSED TOTAL CPU TIME (SEC) =   0.0000    
       ELAPSED WALLCLOCK TIME (SEC) =          0

               CONVERGENCE CHECKS FOR EQUILIBRIUM ITERATION     1


 AVERAGE FORCE                       1.32       TIME AVG. FORCE        1.29    
 LARGEST RESIDUAL FORCE            -4.441E-16   AT NODE          3   DOF  1
 LARGEST INCREMENT OF DISP.        -2.000E-03   AT NODE          5   DOF  3
 LARGEST CORRECTION TO DISP.       -4.465E-17   AT NODE          4   DOF  2
          THE FORCE     EQUILIBRIUM RESPONSE WAS LINEAR IN THIS INCREMENT

 ITERATION SUMMARY FOR THE INCREMENT:   1 TOTAL ITERATIONS, OF WHICH
   0 ARE SEVERE DISCONTINUITY ITERATIONS AND  1 ARE EQUILIBRIUM ITERATIONS.

 TIME INCREMENT COMPLETED  2.000E-02,  FRACTION OF STEP COMPLETED  0.113    
 STEP TIME COMPLETED       0.113    ,  TOTAL TIME COMPLETED         1.11    


  INCREMENT     7 STARTS. ATTEMPT NUMBER  1, TIME INCREMENT  2.000E-02
[...]
 LARGEST INCREMENT OF DISP.        -2.000E-03   AT NODE          5   DOF  3
 LARGEST CORRECTION TO DISP.       -5.665E-17   AT NODE          2   DOF  1
          THE FORCE     EQUILIBRIUM RESPONSE WAS LINEAR IN THIS INCREMENT

 ITERATION SUMMARY FOR THE INCREMENT:   1 TOTAL ITERATIONS, OF WHICH
   0 ARE SEVERE DISCONTINUITY ITERATIONS AND  1 ARE EQUILIBRIUM ITERATIONS.

 TIME INCREMENT COMPLETED  2.000E-02,  FRACTION OF STEP COMPLETED  0.713    
 STEP TIME COMPLETED       0.713    ,  TOTAL TIME COMPLETED         1.71    


  INCREMENT    37 STARTS. ATTEMPT NUMBER  1, TIME INCREMENT  2.000E-02

  NUMBER OF EQUATIONS =        24     NUMBER OF RHS =    1
  NUMBER OF FLOATING PT. OPERATIONS =  9.25E+03

     CHECK POINT   START OF SOLVER    

     CHECK POINT  END OF SOLVER       

       ELAPSED USER TIME (SEC)      =   0.0000    
       ELAPSED SYSTEM TIME (SEC)    =   0.0000    
       ELAPSED TOTAL CPU TIME (SEC) =   0.0000    
       ELAPSED WALLCLOCK TIME (SEC) =          0

               CONVERGENCE CHECKS FOR EQUILIBRIUM ITERATION     1


 AVERAGE FORCE                       1.44       TIME AVG. FORCE        1.40    
 LARGEST RESIDUAL FORCE             4.441E-16   AT NODE          4   DOF  2
 LARGEST INCREMENT OF DISP.        -2.000E-03   AT NODE          5   DOF  3
 LARGEST CORRECTION TO DISP.       -2.591E-17   AT NODE          3   DOF  1
          THE FORCE     EQUILIBRIUM RESPONSE WAS LINEAR IN THIS INCREMENT

 ITERATION SUMMARY FOR THE INCREMENT:   1 TOTAL ITERATIONS, OF WHICH
   0 ARE SEVERE DISCONTINUITY ITERATIONS AND  1 ARE EQUILIBRIUM ITERATIONS.

 TIME INCREMENT COMPLETED  2.000E-02,  FRACTION OF STEP COMPLETED  0.733    
 STEP TIME COMPLETED       0.733    ,  TOTAL TIME COMPLETED         1.73    


  INCREMENT    38 STARTS. ATTEMPT NUMBER  1, TIME INCREMENT  2.000E-02

  NUMBER OF EQUATIONS =        24     NUMBER OF RHS =    1
  NUMBER OF FLOATING PT. OPERATIONS =  9.25E+03

     CHECK POINT   START OF SOLVER    

     CHECK POINT  END OF SOLVER       

       ELAPSED USER TIME (SEC)      =   0.0000    
       ELAPSED SYSTEM TIME (SEC)    =   0.0000    
       ELAPSED TOTAL CPU TIME (SEC) =   0.0000    
       ELAPSED WALLCLOCK TIME (SEC) =          0

               CONVERGENCE CHECKS FOR EQUILIBRIUM ITERATION     1


 AVERAGE FORCE                       1.44       TIME AVG. FORCE        1.40    
 LARGEST RESIDUAL FORCE             4.441E-16   AT NODE          7   DOF  1
 LARGEST INCREMENT OF DISP.        -2.000E-03   AT NODE          5   DOF  3
 LARGEST CORRECTION TO DISP.        6.655E-17   AT NODE          7   DOF  2
          THE FORCE     EQUILIBRIUM RESPONSE WAS LINEAR IN THIS INCREMENT

 ITERATION SUMMARY FOR THE INCREMENT:   1 TOTAL ITERATIONS, OF WHICH
   0 ARE SEVERE DISCONTINUITY ITERATIONS AND  1 ARE EQUILIBRIUM ITERATIONS.

 TIME INCREMENT COMPLETED  2.000E-02,  FRACTION OF STEP COMPLETED  0.753    
 STEP TIME COMPLETED       0.753    ,  TOTAL TIME COMPLETED         1.75    


  INCREMENT    39 STARTS. ATTEMPT NUMBER  1, TIME INCREMENT  2.000E-02

  NUMBER OF EQUATIONS =        24     NUMBER OF RHS =    1
  NUMBER OF FLOATING PT. OPERATIONS =  9.25E+03

     CHECK POINT   START OF SOLVER    

     CHECK POINT  END OF SOLVER       

       ELAPSED USER TIME (SEC)      =   0.0000    
       ELAPSED SYSTEM TIME (SEC)    =   0.0000    
       ELAPSED TOTAL CPU TIME (SEC) =   0.0000    
       ELAPSED WALLCLOCK TIME (SEC) =          0

               CONVERGENCE CHECKS FOR EQUILIBRIUM ITERATION     1


 AVERAGE FORCE                       1.44       TIME AVG. FORCE        1.40    
 LARGEST RESIDUAL FORCE             2.220E-16   AT NODE          4   DOF  2
 LARGEST INCREMENT OF DISP.        -2.000E-03   AT NODE          5   DOF  3
 LARGEST CORRECTION TO DISP.        1.052E-16   AT NODE          8   DOF  2
          THE FORCE     EQUILIBRIUM RESPONSE WAS LINEAR IN THIS INCREMENT

 ITERATION SUMMARY FOR THE INCREMENT:   1 TOTAL ITERATIONS, OF WHICH
   0 ARE SEVERE DISCONTINUITY ITERATIONS AND  1 ARE EQUILIBRIUM ITERATIONS.

 TIME INCREMENT COMPLETED  2.000E-02,  FRACTION OF STEP COMPLETED  0.773    
 STEP TIME COMPLETED       0.773    ,  TOTAL TIME COMPLETED         1.77    


  INCREMENT    40 STARTS. ATTEMPT NUMBER  1, TIME INCREMENT  2.000E-02

  NUMBER OF EQUATIONS =        24     NUMBER OF RHS =    1
  NUMBER OF FLOATING PT. OPERATIONS =  9.25E+03

     CHECK POINT   START OF SOLVER    

     CHECK POINT  END OF SOLVER       

       ELAPSED USER TIME (SEC)      =   0.0000    
       ELAPSED SYSTEM TIME (SEC)    =   0.0000    
       ELAPSED TOTAL CPU TIME (SEC) =   0.0000    
       ELAPSED WALLCLOCK TIME (SEC) =          0

               CONVERGENCE CHECKS FOR EQUILIBRIUM ITERATION     1


 AVERAGE FORCE                       1.44       TIME AVG. FORCE        1.40    
 LARGEST RESIDUAL FORCE            -4.441E-16   AT NODE          2   DOF  1
 LARGEST INCREMENT OF DISP.        -2.000E-03   AT NODE          5   DOF  3
 LARGEST CORRECTION TO DISP.       -9.535E-17   AT NODE          8   DOF  2
          THE FORCE     EQUILIBRIUM RESPONSE WAS LINEAR IN THIS INCREMENT

 ITERATION SUMMARY FOR THE INCREMENT:   1 TOTAL ITERATIONS, OF WHICH
   0 ARE SEVERE DISCONTINUITY ITERATIONS AND  1 ARE EQUILIBRIUM ITERATIONS.

 TIME INCREMENT COMPLETED  2.000E-02,  FRACTION OF STEP COMPLETED  0.793    
 STEP TIME COMPLETED       0.793    ,  TOTAL TIME COMPLETED         1.79    


  INCREMENT    41 STARTS. ATTEMPT NUMBER  1, TIME INCREMENT  2.000E-02

  NUMBER OF EQUATIONS =        24     NUMBER OF RHS =    1
  NUMBER OF FLOATING PT. OPERATIONS =  9.25E+03

     CHECK POINT   START OF SOLVER    

     CHECK POINT  END OF SOLVER       

       ELAPSED USER TIME (SEC)      =   0.0000    
       ELAPSED SYSTEM TIME (SEC)    =   0.0000    
       ELAPSED TOTAL CPU TIME (SEC) =   0.0000    
       ELAPSED WALLCLOCK TIME (SEC) =          0

               CONVERGENCE CHECKS FOR EQUILIBRIUM ITERATION     1


 AVERAGE FORCE                       1.44       TIME AVG. FORCE        1.41    
 LARGEST RESIDUAL FORCE            -2.220E-16   AT NODE          3   DOF  1
 LARGEST INCREMENT OF DISP.        -2.000E-03   AT NODE          5   DOF  3
 LARGEST CORRECTION TO DISP.        6.774E-17   AT NODE          8   DOF  2
          THE FORCE     EQUILIBRIUM RESPONSE WAS LINEAR IN THIS INCREMENT

 ITERATION SUMMARY FOR THE INCREMENT:   1 TOTAL ITERATIONS, OF WHICH
   0 ARE SEVERE DISCONTINUITY ITERATIONS AND  1 ARE EQUILIBRIUM ITERATIONS.

 TIME INCREMENT COMPLETED  2.000E-02,  FRACTION OF STEP COMPLETED  0.813    
 STEP TIME COMPLETED       0.813    ,  TOTAL TIME COMPLETED         1.81    


  INCREMENT    42 STARTS. ATTEMPT NUMBER  1, TIME INCREMENT  2.000E-02

  NUMBER OF EQUATIONS =        24     NUMBER OF RHS =    1
  NUMBER OF FLOATING PT. OPERATIONS =  9.25E+03

     CHECK POINT   START OF SOLVER    

     CHECK POINT  END OF SOLVER       

       ELAPSED USER TIME (SEC)      =   0.0000    
       ELAPSED SYSTEM TIME (SEC)    =   0.0000    
       ELAPSED TOTAL CPU TIME (SEC) =   0.0000    
       ELAPSED WALLCLOCK TIME (SEC) =          0

               CONVERGENCE CHECKS FOR EQUILIBRIUM ITERATION     1


 AVERAGE FORCE                       1.44       TIME AVG. FORCE        1.41    
 LARGEST RESIDUAL FORCE            -4.441E-16   AT NODE          2   DOF  1
 LARGEST INCREMENT OF DISP.        -2.000E-03   AT NODE          5   DOF  3
 LARGEST CORRECTION TO DISP.       -5.932E-17   AT NODE          7   DOF  1
          THE FORCE     EQUILIBRIUM RESPONSE WAS LINEAR IN THIS INCREMENT

 ITERATION SUMMARY FOR THE INCREMENT:   1 TOTAL ITERATIONS, OF WHICH
   0 ARE SEVERE DISCONTINUITY ITERATIONS AND  1 ARE EQUILIBRIUM ITERATIONS.

 TIME INCREMENT COMPLETED  2.000E-02,  FRACTION OF STEP COMPLETED  0.833    
 STEP TIME COMPLETED       0.833    ,  TOTAL TIME COMPLETED         1.83    


  INCREMENT    43 STARTS. ATTEMPT NUMBER  1, TIME INCREMENT  2.000E-02

  NUMBER OF EQUATIONS =        24     NUMBER OF RHS =    1
  NUMBER OF FLOATING PT. OPERATIONS =  9.25E+03

     CHECK POINT   START OF SOLVER    

     CHECK POINT  END OF SOLVER       

       ELAPSED USER TIME (SEC)      =   0.0000    
       ELAPSED SYSTEM TIME (SEC)    =   0.0000    
       ELAPSED TOTAL CPU TIME (SEC) =   0.0000    
       ELAPSED WALLCLOCK TIME (SEC) =          0

               CONVERGENCE CHECKS FOR EQUILIBRIUM ITERATION     1


 AVERAGE FORCE                       1.44       TIME AVG. FORCE        1.41    
 LARGEST RESIDUAL FORCE            -6.661E-16   AT NODE          8   DOF  2
 LARGEST INCREMENT OF DISP.        -2.000E-03   AT NODE          5   DOF  3
 LARGEST CORRECTION TO DISP.       -9.951E-17   AT NODE          7   DOF  2
          THE FORCE     EQUILIBRIUM RESPONSE WAS LINEAR IN THIS INCREMENT

 ITERATION SUMMARY FOR THE INCREMENT:   1 TOTAL ITERATIONS, OF WHICH
   0 ARE SEVERE DISCONTINUITY ITERATIONS AND  1 ARE EQUILIBRIUM ITERATIONS.

 TIME INCREMENT COMPLETED  2.000E-02,  FRACTION OF STEP COMPLETED  0.853    
 STEP TIME COMPLETED       0.853    ,  TOTAL TIME COMPLETED         1.85    


  INCREMENT    44 STARTS. ATTEMPT NUMBER  1, TIME INCREMENT  2.000E-02

  NUMBER OF EQUATIONS =        24     NUMBER OF RHS =    1
  NUMBER OF FLOATING PT. OPERATIONS =  9.25E+03

     CHECK POINT   START OF SOLVER    

     CHECK POINT  END OF SOLVER       

       ELAPSED USER TIME (SEC)      =   0.0000    
       ELAPSED SYSTEM TIME (SEC)    =   0.0000    
       ELAPSED TOTAL CPU TIME (SEC) =   0.0000    
       ELAPSED WALLCLOCK TIME (SEC) =          0

               CONVERGENCE CHECKS FOR EQUILIBRIUM ITERATION     1


 AVERAGE FORCE                       1.44       TIME AVG. FORCE        1.41    
 LARGEST RESIDUAL FORCE            -6.661E-16   AT NODE          4   DOF  2
 LARGEST INCREMENT OF DISP.        -2.000E-03   AT NODE          5   DOF  3
 LARGEST CORRECTION TO DISP.        1.245E-16   AT NODE          7   DOF  2
          THE FORCE     EQUILIBRIUM RESPONSE WAS LINEAR IN THIS INCREMENT

 ITERATION SUMMARY FOR THE INCREMENT:   1 TOTAL ITERATIONS, OF WHICH
   0 ARE SEVERE DISCONTINUITY ITERATIONS AND  1 ARE EQUILIBRIUM ITERATIONS.

 TIME INCREMENT COMPLETED  2.000E-02,  FRACTION OF STEP COMPLETED  0.873    
 STEP TIME COMPLETED       0.873    ,  TOTAL TIME COMPLETED         1.87    


  INCREMENT    45 STARTS. ATTEMPT NUMBER  1, TIME INCREMENT  2.000E-02

  NUMBER OF EQUATIONS =        24     NUMBER OF RHS =    1
  NUMBER OF FLOATING PT. OPERATIONS =  9.25E+03

     CHECK POINT   START OF SOLVER    

     CHECK POINT  END OF SOLVER       

       ELAPSED USER TIME (SEC)      =   0.0000    
       ELAPSED SYSTEM TIME (SEC)    =   0.0000    
       ELAPSED TOTAL CPU TIME (SEC) =   0.0000    
       ELAPSED WALLCLOCK TIME (SEC) =          0

               CONVERGENCE CHECKS FOR EQUILIBRIUM ITERATION     1


 AVERAGE FORCE                       1.44       TIME AVG. FORCE        1.41    
 LARGEST RESIDUAL FORCE             6.661E-16   AT NODE          2   DOF  1
 LARGEST INCREMENT OF DISP.        -2.000E-03   AT NODE          5   DOF  3
 LARGEST CORRECTION TO DISP.       -9.936E-17   AT NODE          4   DOF  2
          THE FORCE     EQUILIBRIUM RESPONSE WAS LINEAR IN THIS INCREMENT

 ITERATION SUMMARY FOR THE INCREMENT:   1 TOTAL ITERATIONS, OF WHICH
   0 ARE SEVERE DISCONTINUITY ITERATIONS AND  1 ARE EQUILIBRIUM ITERATIONS.

 TIME INCREMENT COMPLETED  2.000E-02,  FRACTION OF STEP COMPLETED  0.893    
 STEP TIME COMPLETED       0.893    ,  TOTAL TIME COMPLETED         1.89    


  INCREMENT    46 STARTS. ATTEMPT NUMBER  1, TIME INCREMENT  2.000E-02

  NUMBER OF EQUATIONS =        24     NUMBER OF RHS =    1
  NUMBER OF FLOATING PT. OPERATIONS =  9.25E+03

     CHECK POINT   START OF SOLVER    

     CHECK POINT  END OF SOLVER       

       ELAPSED USER TIME (SEC)      =   0.0000    
       ELAPSED SYSTEM TIME (SEC)    =   0.0000    
       ELAPSED TOTAL CPU TIME (SEC) =   0.0000    
       ELAPSED WALLCLOCK TIME (SEC) =          0

               CONVERGENCE CHECKS FOR EQUILIBRIUM ITERATION     1


 AVERAGE FORCE                       1.44       TIME AVG. FORCE        1.41    
 LARGEST RESIDUAL FORCE            -4.441E-16   AT NODE          2   DOF  1
 LARGEST INCREMENT OF DISP.        -2.000E-03   AT NODE          5   DOF  3
 LARGEST CORRECTION TO DISP.       -5.867E-17   AT NODE          8   DOF  2
          THE FORCE     EQUILIBRIUM RESPONSE WAS LINEAR IN THIS INCREMENT

 ITERATION SUMMARY FOR THE INCREMENT:   1 TOTAL ITERATIONS, OF WHICH
   0 ARE SEVERE DISCONTINUITY ITERATIONS AND  1 ARE EQUILIBRIUM ITERATIONS.

 TIME INCREMENT COMPLETED  2.000E-02,  FRACTION OF STEP COMPLETED  0.913    
 STEP TIME COMPLETED       0.913    ,  TOTAL TIME COMPLETED         1.91    


  INCREMENT    47 STARTS. ATTEMPT NUMBER  1, TIME INCREMENT  2.000E-02

  NUMBER OF EQUATIONS =        24     NUMBER OF RHS =    1
  NUMBER OF FLOATING PT. OPERATIONS =  9.25E+03

     CHECK POINT   START OF SOLVER    

     CHECK POINT  END OF SOLVER       

       ELAPSED USER TIME (SEC)      =   0.0000    
       ELAPSED SYSTEM TIME (SEC)    =   0.0000    
       ELAPSED TOTAL CPU TIME (SEC) =   0.0000    
       ELAPSED WALLCLOCK TIME (SEC) =          0

               CONVERGENCE CHECKS FOR EQUILIBRIUM ITERATION     1


 AVERAGE FORCE                       1.44       TIME AVG. FORCE        1.41    
 LARGEST RESIDUAL FORCE             4.441E-16   AT NODE          4   DOF  2
 LARGEST INCREMENT OF DISP.        -2.000E-03   AT NODE          5   DOF  3
 LARGEST CORRECTION TO DISP.       -1.031E-16   AT NODE          2   DOF  1
          THE FORCE     EQUILIBRIUM RESPONSE WAS LINEAR IN THIS INCREMENT

 ITERATION SUMMARY FOR THE INCREMENT:   1 TOTAL ITERATIONS, OF WHICH
   0 ARE SEVERE DISCONTINUITY ITERATIONS AND  1 ARE EQUILIBRIUM ITERATIONS.

 TIME INCREMENT COMPLETED  2.000E-02,  FRACTION OF STEP COMPLETED  0.933    
 STEP TIME COMPLETED       0.933    ,  TOTAL TIME COMPLETED         1.93    


  INCREMENT    48 STARTS. ATTEMPT NUMBER  1, TIME INCREMENT  2.000E-02

  NUMBER OF EQUATIONS =        24     NUMBER OF RHS =    1
  NUMBER OF FLOATING PT. OPERATIONS =  9.25E+03

     CHECK POINT   START OF SOLVER    

     CHECK POINT  END OF SOLVER       

       ELAPSED USER TIME (SEC)      =   0.0000    
       ELAPSED SYSTEM TIME (SEC)    =   0.0000    
       ELAPSED TOTAL CPU TIME (SEC) =   0.0000    
       ELAPSED WALLCLOCK TIME (SEC) =          0

               CONVERGENCE CHECKS FOR EQUILIBRIUM ITERATION     1


 AVERAGE FORCE                       1.44       TIME AVG. FORCE        1.41    
 LARGEST RESIDUAL FORCE             2.220E-16   AT NODE          2   DOF  1
 LARGEST INCREMENT OF DISP.        -2.000E-03   AT NODE          5   DOF  3
 LARGEST CORRECTION TO DISP.        3.949E-17   AT NODE          4   DOF  2
          THE FORCE     EQUILIBRIUM RESPONSE WAS LINEAR IN THIS INCREMENT

 ITERATION SUMMARY FOR THE INCREMENT:   1 TOTAL ITERATIONS, OF WHICH
   0 ARE SEVERE DISCONTINUITY ITERATIONS AND  1 ARE EQUILIBRIUM ITERATIONS.

 TIME INCREMENT COMPLETED  2.000E-02,  FRACTION OF STEP COMPLETED  0.953    
 STEP TIME COMPLETED       0.953    ,  TOTAL TIME COMPLETED         1.95    


  INCREMENT    49 STARTS. ATTEMPT NUMBER  1, TIME INCREMENT  2.000E-02

  NUMBER OF EQUATIONS =        24     NUMBER OF RHS =    1
  NUMBER OF FLOATING PT. OPERATIONS =  9.25E+03

     CHECK POINT   START OF SOLVER    

     CHECK POINT  END OF SOLVER       

       ELAPSED USER TIME (SEC)      =   0.0000    
       ELAPSED SYSTEM TIME (SEC)    =   0.0000    
       ELAPSED TOTAL CPU TIME (SEC) =   0.0000    
       ELAPSED WALLCLOCK TIME (SEC) =          0

               CONVERGENCE CHECKS FOR EQUILIBRIUM ITERATION     1


 AVERAGE FORCE                       1.44       TIME AVG. FORCE        1.41    
 LARGEST RESIDUAL FORCE            -6.661E-16   AT NODE          2   DOF  1
 LARGEST INCREMENT OF DISP.        -2.000E-03   AT NODE          5   DOF  3
 LARGEST CORRECTION TO DISP.       -1.050E-16   AT NODE          4   DOF  2
          THE FORCE     EQUILIBRIUM RESPONSE WAS LINEAR IN THIS INCREMENT

 ITERATION SUMMARY FOR THE INCREMENT:   1 TOTAL ITERATIONS, OF WHICH
   0 ARE SEVERE DISCONTINUITY ITERATIONS AND  1 ARE EQUILIBRIUM ITERATIONS.

 TIME INCREMENT COMPLETED  2.000E-02,  FRACTION OF STEP COMPLETED  0.973    
 STEP TIME COMPLETED       0.973    ,  TOTAL TIME COMPLETED         1.97    


  INCREMENT    50 STARTS. ATTEMPT NUMBER  1, TIME INCREMENT  2.000E-02

  NUMBER OF EQUATIONS =        24     NUMBER OF RHS =    1
  NUMBER OF FLOATING PT. OPERATIONS =  9.25E+03

     CHECK POINT   START OF SOLVER    

     CHECK POINT  END OF SOLVER       

       ELAPSED USER TIME (SEC)      =  0.10000    
       ELAPSED SYSTEM TIME (SEC)    =   0.0000    
       ELAPSED TOTAL CPU TIME (SEC) =  0.10000    
       ELAPSED WALLCLOCK TIME (SEC) =          0

               CONVERGENCE CHECKS FOR EQUILIBRIUM ITERATION     1


 AVERAGE FORCE                       1.44       TIME AVG. FORCE        1.41    
 LARGEST RESIDUAL FORCE             4.441E-16   AT NODE          4   DOF  2
 LARGEST INCREMENT OF DISP.        -2.000E-03   AT NODE          5   DOF  3
 LARGEST CORRECTION TO DISP.       -9.972E-17   AT NODE          2   DOF  1
          THE FORCE     EQUILIBRIUM RESPONSE WAS LINEAR IN THIS INCREMENT

 ITERATION SUMMARY FOR THE INCREMENT:   1 TOTAL ITERATIONS, OF WHICH
   0 ARE SEVERE DISCONTINUITY ITERATIONS AND  1 ARE EQUILIBRIUM ITERATIONS.

 TIME INCREMENT COMPLETED  2.000E-02,  FRACTION OF STEP COMPLETED  0.993    
 STEP TIME COMPLETED       0.993    ,  TOTAL TIME COMPLETED         1.99    


  INCREMENT    51 STARTS. ATTEMPT NUMBER  1, TIME INCREMENT  6.667E-03

  NUMBER OF EQUATIONS =        24     NUMBER OF RHS =    1
  NUMBER OF FLOATING PT. OPERATIONS =  9.25E+03

     CHECK POINT   START OF SOLVER    

     CHECK POINT  END OF SOLVER       

       ELAPSED USER TIME (SEC)      =   0.0000    
       ELAPSED SYSTEM TIME (SEC)    =   0.0000    
       ELAPSED TOTAL CPU TIME (SEC) =   0.0000    
       ELAPSED WALLCLOCK TIME (SEC) =          0

               CONVERGENCE CHECKS FOR EQUILIBRIUM ITERATION     1


 AVERAGE FORCE                       1.44       TIME AVG. FORCE        1.41    
 LARGEST RESIDUAL FORCE            -6.661E-16   AT NODE          7   DOF  2
 LARGEST INCREMENT OF DISP.        -6.667E-04   AT NODE          5   DOF  3
 LARGEST CORRECTION TO DISP.       -3.750E-17   AT NODE          3   DOF  2
          THE FORCE     EQUILIBRIUM RESPONSE WAS LINEAR IN THIS INCREMENT

 ITERATION SUMMARY FOR THE INCREMENT:   1 TOTAL ITERATIONS, OF WHICH
   0 ARE SEVERE DISCONTINUITY ITERATIONS AND  1 ARE EQUILIBRIUM ITERATIONS.

 TIME INCREMENT COMPLETED  6.667E-03,  FRACTION OF STEP COMPLETED   1.00    
 STEP TIME COMPLETED        1.00    ,  TOTAL TIME COMPLETED         2.00    


          THE ANALYSIS HAS BEEN COMPLETED



     ANALYSIS SUMMARY:
     TOTAL OF        102  INCREMENTS
                       0  CUTBACKS IN AUTOMATIC INCREMENTATION
                     103  ITERATIONS INCLUDING CONTACT ITERATIONS IF PRESENT
                     103  PASSES THROUGH THE EQUATION SOLVER OF WHICH 
                       4  INVOLVE MATRIX DECOMPOSITION, INCLUDING
                       0  DECOMPOSITION(S) OF THE MASS MATRIX
                       1  REORDERING OF EQUATIONS TO MINIMIZE WAVEFRONT
                       0  ADDITIONAL RESIDUAL EVALUATIONS FOR LINE SEARCHES
                       0  ADDITIONAL OPERATOR EVALUATIONS FOR LINE SEARCHES
                       1  WARNING MESSAGES DURING USER INPUT PROCESSING
                       0  WARNING MESSAGES DURING ANALYSIS
                       0  ANALYSIS WARNINGS ARE NUMERICAL PROBLEM MESSAGES
                       0  ANALYSIS WARNINGS ARE NEGATIVE EIGENVALUE MESSAGES
                       0  ERROR MESSAGES



     JOB TIME SUMMARY
       USER TIME (SEC)      =   1.2000    
       SYSTEM TIME (SEC)    =  0.60000    
       TOTAL CPU TIME (SEC) =   1.8000    
       WALLCLOCK TIME (SEC) =          2
