1

   Abaqus 3DEXPERIENCE R2018x                                  Date 02-May-2019   Time 15:58:31
   For use by SIMPSON GUMPERTZ AND HEGER INC under license from Dassault Systemes or its subsidiary.

 ABAQUS Static Analysis Set                                                      
 Contact example                                                                 
 STEP    1     INCREMENT     1     STEP TIME    0.00    


                        S T E P       1     S T A T I C   A N A L Y S I S


          Contact example                                                                 

     AUTOMATIC TIME CONTROL WITH -
          A SUGGESTED INITIAL TIME INCREMENT OF                0.100    
          AND A TOTAL TIME PERIOD OF                            1.00    
          THE MINIMUM TIME INCREMENT ALLOWED IS                1.000E-12
          THE MAXIMUM TIME INCREMENT ALLOWED IS                 1.00    

     LINEAR EQUATION SOLVER TYPE         DIRECT SPARSE

 CONVERGENCE TOLERANCE PARAMETERS FOR FORCE    
     CRITERION FOR RESIDUAL FORCE     FOR A NONLINEAR PROBLEM          5.000E-03
     CRITERION FOR DISP.    CORRECTION IN A NONLINEAR PROBLEM          1.000E-02
     INITIAL VALUE OF TIME AVERAGE FORCE                               1.000E-02
     AVERAGE FORCE     IS TIME AVERAGE FORCE    
     ALTERNATE CRIT. FOR RESIDUAL FORCE     FOR A NONLINEAR PROBLEM    2.000E-02
     CRITERION FOR ZERO FORCE     RELATIVE TO TIME AVRG. FORCE         1.000E-05
     CRITERION FOR RESIDUAL FORCE     WHEN THERE IS ZERO FLUX          1.000E-05
     CRITERION FOR DISP.    CORRECTION WHEN THERE IS ZERO FLUX         1.000E-03
     CRITERION FOR RESIDUAL FORCE     FOR A LINEAR INCREMENT           1.000E-08
     FIELD CONVERSION RATIO                                             1.00    
     CRITERION FOR ZERO FORCE     REL. TO TIME AVRG. MAX. FORCE        1.000E-05
     CRITERION FOR ZERO DISP.    RELATIVE TO CHARACTERISTIC LENGTH     1.000E-08

 CONVERGENCE TOLERANCE PARAMETERS FOR MOMENT   
     CRITERION FOR RESIDUAL MOMENT    FOR A NONLINEAR PROBLEM          5.000E-03
     CRITERION FOR ROTATION CORRECTION IN A NONLINEAR PROBLEM          1.000E-02
     INITIAL VALUE OF TIME AVERAGE MOMENT                              1.000E-02
     AVERAGE MOMENT    IS TIME AVERAGE MOMENT   
     ALTERNATE CRIT. FOR RESIDUAL MOMENT    FOR A NONLINEAR PROBLEM    2.000E-02
     CRITERION FOR ZERO MOMENT    RELATIVE TO TIME AVRG. MOMENT        1.000E-05
     CRITERION FOR RESIDUAL MOMENT    WHEN THERE IS ZERO FLUX          1.000E-05
     CRITERION FOR ROTATION CORRECTION WHEN THERE IS ZERO FLUX         1.000E-03
     CRITERION FOR RESIDUAL MOMENT    FOR A LINEAR INCREMENT           1.000E-08
     FIELD CONVERSION RATIO                                             1.00    
     CRITERION FOR ZERO MOMENT    REL. TO TIME AVRG. MAX. MOMENT       1.000E-05

     VOLUMETRIC STRAIN COMPATIBILITY TOLERANCE FOR HYBRID SOLIDS       1.000E-05
     AXIAL STRAIN COMPATIBILITY TOLERANCE FOR HYBRID BEAMS             1.000E-05
     TRANS. SHEAR STRAIN COMPATIBILITY TOLERANCE FOR HYBRID BEAMS      1.000E-05
     SOFT CONTACT CONSTRAINT COMPATIBILITY TOLERANCE FOR P>P0          5.000E-03
     SOFT CONTACT CONSTRAINT COMPATIBILITY TOLERANCE FOR P=0.0         0.100    
     CONTACT FORCE ERROR TOLERANCE FOR CONVERT SDI=YES                 1.00    
     DISPLACEMENT COMPATIBILITY TOLERANCE FOR DCOUP ELEMENTS           1.000E-05
     ROTATION COMPATIBILITY TOLERANCE FOR DCOUP ELEMENTS               1.000E-05

 EQUILIBRIUM WILL BE CHECKED FOR SEVERE DISCONTINUITY ITERATIONS

 TIME INCREMENTATION CONTROL PARAMETERS:
     FIRST EQUILIBRIUM ITERATION FOR CONSECUTIVE DIVERGENCE CHECK              4
     EQUILIBRIUM ITERATION AT WHICH LOG. CONVERGENCE RATE CHECK BEGINS         8
     EQUILIBRIUM ITERATION AFTER WHICH ALTERNATE RESIDUAL IS USED              9
     MAXIMUM EQUILIBRIUM ITERATIONS ALLOWED                                   16
     EQUILIBRIUM ITERATION COUNT FOR CUT-BACK IN NEXT INCREMENT               10
     MAXIMUM EQUILIB. ITERS IN TWO INCREMENTS FOR TIME INCREMENT INCREASE      4
     MAXIMUM ITERATIONS FOR SEVERE DISCONTINUITIES                            50
     MAXIMUM ATTEMPTS ALLOWED IN AN INCREMENT                                  5
     MAXIMUM DISCON. ITERS IN TWO INCREMENTS FOR TIME INCREMENT INCREASE      50
     MAXIMUM CONTACT AUGMENTATIONS FOR *SURFACE BEHAVIOR,AUGMENTED LAGRANGE   50
     CUT-BACK FACTOR AFTER DIVERGENCE                                 0.2500    
     CUT-BACK FACTOR FOR TOO SLOW CONVERGENCE                         0.5000    
     CUT-BACK FACTOR AFTER TOO MANY EQUILIBRIUM ITERATIONS            0.7500    
     CUT-BACK FACTOR AFTER TOO MANY SEVERE DISCONTINUITY ITERATIONS   0.2500    
     CUT-BACK FACTOR AFTER PROBLEMS IN ELEMENT ASSEMBLY               0.2500    
     INCREASE FACTOR AFTER TWO INCREMENTS THAT CONVERGE QUICKLY        1.500    
     MAX. TIME INCREMENT INCREASE FACTOR ALLOWED                       1.500    
     MAX. TIME INCREMENT INCREASE FACTOR ALLOWED (DYNAMICS)            1.250    
     MAX. TIME INCREMENT INCREASE FACTOR ALLOWED (DIFFUSION)           2.000    
     MINIMUM TIME INCREMENT RATIO FOR EXTRAPOLATION TO OCCUR          0.1000    
     MAX. RATIO OF TIME INCREMENT TO STABILITY LIMIT                   1.000    
     FRACTION OF STABILITY LIMIT FOR NEW TIME INCREMENT               0.9500    
     TIME INCREMENT INCREASE FACTOR BEFORE A TIME POINT                1.000    

 CONTACT CONTROLS APPLIED TO ALL CONTACT PAIRS:
     GLOBAL STABILIZATION CONTROL IS NOT USED
     RELATIVE PENETRATION TOLERANCE FOR AUGMENTED LAGRANGE CONTACT:
          FINITE-SLIDING SURFACE-TO-SURFACE                            5.000E-02
          OTHERWISE                                                    1.000E-03

          PRINT OF INCREMENT NUMBER, TIME, ETC., EVERY    1  INCREMENTS

     THE MAXIMUM NUMBER OF INCREMENTS IN THIS STEP IS                 *******

          UNSYMMETRIC MATRIX STORAGE AND SOLUTION WILL BE USED

     LINEAR EXTRAPOLATION WILL BE USED

     CHARACTERISTIC ELEMENT LENGTH      1.00    

     DETAILS REGARDING ACTUAL SOLUTION WAVEFRONT REQUESTED

     DETAILED OUTPUT OF DIAGNOSTICS TO DATABASE REQUESTED

     PRINT OF INCREMENT NUMBER, TIME, ETC., TO THE MESSAGE FILE EVERY     1  INCREMENTS

     COLLECTING MODEL CONSTRAINT INFORMATION FOR OVERCONSTRAINT CHECKS

     COLLECTING STEP CONSTRAINT INFORMATION FOR OVERCONSTRAINT CHECKS


  INCREMENT     1 STARTS. ATTEMPT NUMBER  1, TIME INCREMENT  0.100    

  NUMBER OF EQUATIONS =        78     NUMBER OF RHS =    1
  NUMBER OF FLOATING PT. OPERATIONS =  1.77E+05

     CHECK POINT   START OF SOLVER    

     CHECK POINT  END OF SOLVER       

       ELAPSED USER TIME (SEC)      =   0.0000    
       ELAPSED SYSTEM TIME (SEC)    =   0.0000    
       ELAPSED TOTAL CPU TIME (SEC) =   0.0000    
       ELAPSED WALLCLOCK TIME (SEC) =          0

               CONVERGENCE CHECKS FOR EQUILIBRIUM ITERATION     1

   MAX. PENETRATION ERROR 89.3857E-18  AT NODE 6 OF CONTACT PAIR 
   (TOPSURFCUBE,BOTSURFTABLE)
   MAX. CONTACT FORCE ERROR 11.3439E-15  AT NODE 6 OF CONTACT PAIR 
   (TOPSURFCUBE,BOTSURFTABLE)
          THE CONTACT CONSTRAINTS HAVE CONVERGED.

 AVERAGE FORCE                      5.859E-03   TIME AVG. FORCE       5.859E-03
 LARGEST RESIDUAL FORCE             7.910E-15   AT NODE          5   DOF  3
 LARGEST INCREMENT OF DISP.        -0.112       AT NODE         17   DOF  3
 LARGEST CORRECTION TO DISP.       -0.112       AT NODE         17   DOF  3
          THE FORCE     EQUILIBRIUM RESPONSE WAS LINEAR IN THIS INCREMENT

 AVERAGE MOMENT                     6.250E-03   TIME AVG. MOMENT      6.250E-03
 LARGEST RESIDUAL MOMENT           -3.290E-16   AT NODE         12   DOF  5
 LARGEST INCREMENT OF ROTATION      0.202       AT NODE         14   DOF  5
 LARGEST CORRECTION TO ROTATION     0.202       AT NODE         14   DOF  5
          THE MOMENT    EQUILIBRIUM RESPONSE WAS LINEAR IN THIS INCREMENT

 ITERATION SUMMARY FOR THE INCREMENT:   1 TOTAL ITERATIONS, OF WHICH
   0 ARE SEVERE DISCONTINUITY ITERATIONS AND  1 ARE EQUILIBRIUM ITERATIONS.

 TIME INCREMENT COMPLETED  0.100    ,  FRACTION OF STEP COMPLETED  0.100    
 STEP TIME COMPLETED       0.100    ,  TOTAL TIME COMPLETED        0.100    


  INCREMENT     2 STARTS. ATTEMPT NUMBER  1, TIME INCREMENT  0.100    

  NUMBER OF EQUATIONS =        78     NUMBER OF RHS =    1
  NUMBER OF FLOATING PT. OPERATIONS =  1.77E+05

     CHECK POINT   START OF SOLVER    

     CHECK POINT  END OF SOLVER       

       ELAPSED USER TIME (SEC)      =   0.0000    
       ELAPSED SYSTEM TIME (SEC)    =   0.0000    
       ELAPSED TOTAL CPU TIME (SEC) =   0.0000    
       ELAPSED WALLCLOCK TIME (SEC) =          0

               CONVERGENCE CHECKS FOR EQUILIBRIUM ITERATION     1

   MAX. PENETRATION ERROR 104.029E-18   AT NODE 5 OF CONTACT PAIR 
   (TOPSURFCUBE,BOTSURFTABLE)
   MAX. CONTACT FORCE ERROR 11.0473E-15  AT NODE 6 OF CONTACT PAIR 
   (TOPSURFCUBE,BOTSURFTABLE)
          THE CONTACT CONSTRAINTS HAVE CONVERGED.

 AVERAGE FORCE                      5.625E-02   TIME AVG. FORCE       3.105E-02
 LARGEST RESIDUAL FORCE             6.384E-16   AT NODE         13   DOF  3
 LARGEST INCREMENT OF DISP.        -0.112       AT NODE          9   DOF  3
 LARGEST CORRECTION TO DISP.       -3.072E-15   AT NODE         16   DOF  3
          THE FORCE     EQUILIBRIUM RESPONSE WAS LINEAR IN THIS INCREMENT

 AVERAGE MOMENT                     3.750E-02   TIME AVG. MOMENT      2.187E-02
 LARGEST RESIDUAL MOMENT            2.082E-16   AT NODE         16   DOF  5
 LARGEST INCREMENT OF ROTATION      0.202       AT NODE         10   DOF  4
 LARGEST CORRECTION TO ROTATION     9.379E-15   AT NODE         15   DOF  5
          THE MOMENT    EQUILIBRIUM RESPONSE WAS LINEAR IN THIS INCREMENT
          TIME INCREMENT MAY NOW INCREASE TO    0.150    

 ITERATION SUMMARY FOR THE INCREMENT:   1 TOTAL ITERATIONS, OF WHICH
   0 ARE SEVERE DISCONTINUITY ITERATIONS AND  1 ARE EQUILIBRIUM ITERATIONS.

 TIME INCREMENT COMPLETED  0.100    ,  FRACTION OF STEP COMPLETED  0.200    
 STEP TIME COMPLETED       0.200    ,  TOTAL TIME COMPLETED        0.200    


  INCREMENT     3 STARTS. ATTEMPT NUMBER  1, TIME INCREMENT  0.150    

  NUMBER OF EQUATIONS =        78     NUMBER OF RHS =    1
  NUMBER OF FLOATING PT. OPERATIONS =  1.77E+05

     CHECK POINT   START OF SOLVER    

     CHECK POINT  END OF SOLVER       

       ELAPSED USER TIME (SEC)      =   0.0000    
       ELAPSED SYSTEM TIME (SEC)    =   0.0000    
       ELAPSED TOTAL CPU TIME (SEC) =   0.0000    
       ELAPSED WALLCLOCK TIME (SEC) =          0

               CONVERGENCE CHECKS FOR EQUILIBRIUM ITERATION     1

   MAX. PENETRATION ERROR 156.342E-18   AT NODE 8 OF CONTACT PAIR 
   (TOPSURFCUBE,BOTSURFTABLE)
   MAX. CONTACT FORCE ERROR 14.8810E-15  AT NODE 8 OF CONTACT PAIR 
   (TOPSURFCUBE,BOTSURFTABLE)
          THE CONTACT CONSTRAINTS HAVE CONVERGED.

 AVERAGE FORCE                      9.844E-02   TIME AVG. FORCE       5.352E-02
 LARGEST RESIDUAL FORCE            -2.054E-15   AT NODE         14   DOF  3
 LARGEST INCREMENT OF DISP.        -0.167       AT NODE         17   DOF  3
 LARGEST CORRECTION TO DISP.        2.341E-15   AT NODE         11   DOF  3
          THE FORCE     EQUILIBRIUM RESPONSE WAS LINEAR IN THIS INCREMENT

 AVERAGE MOMENT                     6.563E-02   TIME AVG. MOMENT      3.646E-02
 LARGEST RESIDUAL MOMENT            5.749E-16   AT NODE         10   DOF  4
 LARGEST INCREMENT OF ROTATION     -0.303       AT NODE         16   DOF  4
 LARGEST CORRECTION TO ROTATION    -6.990E-15   AT NODE         15   DOF  5
          THE MOMENT    EQUILIBRIUM RESPONSE WAS LINEAR IN THIS INCREMENT
          TIME INCREMENT MAY NOW INCREASE TO    0.225    

 ITERATION SUMMARY FOR THE INCREMENT:   1 TOTAL ITERATIONS, OF WHICH
   0 ARE SEVERE DISCONTINUITY ITERATIONS AND  1 ARE EQUILIBRIUM ITERATIONS.

 TIME INCREMENT COMPLETED  0.150    ,  FRACTION OF STEP COMPLETED  0.350    
 STEP TIME COMPLETED       0.350    ,  TOTAL TIME COMPLETED        0.350    


  INCREMENT     4 STARTS. ATTEMPT NUMBER  1, TIME INCREMENT  0.225    

  NUMBER OF EQUATIONS =        78     NUMBER OF RHS =    1
  NUMBER OF FLOATING PT. OPERATIONS =  1.91E+05

     CHECK POINT   START OF SOLVER    

     CHECK POINT  END OF SOLVER       

       ELAPSED USER TIME (SEC)      =   0.0000    
       ELAPSED SYSTEM TIME (SEC)    =   0.0000    
       ELAPSED TOTAL CPU TIME (SEC) =   0.0000    
       ELAPSED WALLCLOCK TIME (SEC) =          0

               CONVERGENCE CHECKS FOR EQUILIBRIUM ITERATION     1

   MAX. PENETRATION ERROR 109.857E-18   AT NODE 6 OF CONTACT PAIR 
   (TOPSURFCUBE,BOTSURFTABLE)
   MAX. CONTACT FORCE ERROR 13.9419E-15  AT NODE 6 OF CONTACT PAIR 
   (TOPSURFCUBE,BOTSURFTABLE)
          THE CONTACT CONSTRAINTS HAVE CONVERGED.

 AVERAGE FORCE                      0.162       TIME AVG. FORCE       8.057E-02
 LARGEST RESIDUAL FORCE             4.163E-15   AT NODE         13   DOF  3
 LARGEST INCREMENT OF DISP.        -0.251       AT NODE         11   DOF  3
 LARGEST CORRECTION TO DISP.       -2.250E-15   AT NODE         11   DOF  3
          THE FORCE     EQUILIBRIUM RESPONSE WAS LINEAR IN THIS INCREMENT

 AVERAGE MOMENT                     0.108       TIME AVG. MOMENT      5.430E-02
 LARGEST RESIDUAL MOMENT           -1.152E-15   AT NODE         16   DOF  5
 LARGEST INCREMENT OF ROTATION      0.455       AT NODE         14   DOF  5
 LARGEST CORRECTION TO ROTATION     1.917E-15   AT NODE         11   DOF  5
          THE MOMENT    EQUILIBRIUM RESPONSE WAS LINEAR IN THIS INCREMENT
          TIME INCREMENT MAY NOW INCREASE TO    0.338    

 ITERATION SUMMARY FOR THE INCREMENT:   1 TOTAL ITERATIONS, OF WHICH
   0 ARE SEVERE DISCONTINUITY ITERATIONS AND  1 ARE EQUILIBRIUM ITERATIONS.

 TIME INCREMENT COMPLETED  0.225    ,  FRACTION OF STEP COMPLETED  0.575    
 STEP TIME COMPLETED       0.575    ,  TOTAL TIME COMPLETED        0.575    


  INCREMENT     5 STARTS. ATTEMPT NUMBER  1, TIME INCREMENT  0.338    

  NUMBER OF EQUATIONS =        78     NUMBER OF RHS =    1
  NUMBER OF FLOATING PT. OPERATIONS =  1.77E+05

     CHECK POINT   START OF SOLVER    

     CHECK POINT  END OF SOLVER       

       ELAPSED USER TIME (SEC)      =   0.0000    
       ELAPSED SYSTEM TIME (SEC)    =   0.0000    
       ELAPSED TOTAL CPU TIME (SEC) =   0.0000    
       ELAPSED WALLCLOCK TIME (SEC) =          0

               CONVERGENCE CHECKS FOR EQUILIBRIUM ITERATION     1

   MAX. PENETRATION ERROR -9.12988E-03 AT NODE 5 OF CONTACT PAIR 
   (TOPSURFCUBE,BOTSURFTABLE)
   MAX. CONTACT FORCE ERROR -869.005E-03   AT NODE 7 OF CONTACT PAIR 
   (TOPSURFCUBE,BOTSURFTABLE)
          PENETRATION ERROR TOO LARGE COMPARED TO DISPLACEMENT INCREMENT.

 AVERAGE FORCE                      0.275       TIME AVG. FORCE       0.119    
 LARGEST RESIDUAL FORCE              1.05       AT NODE         13   DOF  3
 LARGEST INCREMENT OF DISP.        -0.273       AT NODE         15   DOF  3
 LARGEST CORRECTION TO DISP.        0.104       AT NODE         11   DOF  3
          FORCE     EQUILIBRIUM NOT ACHIEVED WITHIN TOLERANCE.

 AVERAGE MOMENT                     0.157       TIME AVG. MOMENT      7.492E-02
 LARGEST RESIDUAL MOMENT            1.443E-15   AT NODE         14   DOF  5
 LARGEST INCREMENT OF ROTATION     -0.503       AT NODE         12   DOF  5
 LARGEST CORRECTION TO ROTATION    -0.179       AT NODE         14   DOF  5
          THE MOMENT    EQUILIBRIUM RESPONSE WAS LINEAR IN THIS INCREMENT

  NUMBER OF EQUATIONS =        78     NUMBER OF RHS =    1
  NUMBER OF FLOATING PT. OPERATIONS =  1.77E+05

     CHECK POINT   START OF SOLVER    

     CHECK POINT  END OF SOLVER       

       ELAPSED USER TIME (SEC)      =   0.0000    
       ELAPSED SYSTEM TIME (SEC)    =   0.0000    
       ELAPSED TOTAL CPU TIME (SEC) =   0.0000    
       ELAPSED WALLCLOCK TIME (SEC) =          0

               CONVERGENCE CHECKS FOR EQUILIBRIUM ITERATION     2

   MAX. PENETRATION ERROR 2.79852E-03 AT NODE 8 OF CONTACT PAIR 
   (TOPSURFCUBE,BOTSURFTABLE)
   MAX. CONTACT FORCE ERROR 295.967E-03   AT NODE 8 OF CONTACT PAIR 
   (TOPSURFCUBE,BOTSURFTABLE)
          PENETRATION ERROR TOO LARGE COMPARED TO DISPLACEMENT INCREMENT.

 AVERAGE FORCE                      0.238       TIME AVG. FORCE       0.112    
 LARGEST RESIDUAL FORCE            -0.313       AT NODE         13   DOF  3
 LARGEST INCREMENT OF DISP.        -0.314       AT NODE         15   DOF  3
 LARGEST CORRECTION TO DISP.       -4.111E-02   AT NODE         17   DOF  3
          FORCE     EQUILIBRIUM NOT ACHIEVED WITHIN TOLERANCE.

 AVERAGE MOMENT                     0.163       TIME AVG. MOMENT      7.602E-02
 LARGEST RESIDUAL MOMENT           -1.530E-15   AT NODE         17   DOF  5
 LARGEST INCREMENT OF ROTATION     -0.574       AT NODE         16   DOF  4
 LARGEST CORRECTION TO ROTATION    -7.138E-02   AT NODE         16   DOF  4
          THE MOMENT    EQUILIBRIUM EQUATIONS HAVE CONVERGED

  NUMBER OF EQUATIONS =        78     NUMBER OF RHS =    1
  NUMBER OF FLOATING PT. OPERATIONS =  1.77E+05

     CHECK POINT   START OF SOLVER    

     CHECK POINT  END OF SOLVER       

       ELAPSED USER TIME (SEC)      =   0.0000    
       ELAPSED SYSTEM TIME (SEC)    =   0.0000    
       ELAPSED TOTAL CPU TIME (SEC) =   0.0000    
       ELAPSED WALLCLOCK TIME (SEC) =          0

               CONVERGENCE CHECKS FOR EQUILIBRIUM ITERATION     3

   MAX. PENETRATION ERROR -1.19941E-03 AT NODE 5 OF CONTACT PAIR 
   (TOPSURFCUBE,BOTSURFTABLE)
   MAX. CONTACT FORCE ERROR -114.163E-03   AT NODE 5 OF CONTACT PAIR 
   (TOPSURFCUBE,BOTSURFTABLE)
          THE ESTIMATED CONTACT FORCE ERROR IS OUTSIDE OF CONVERGENCE TOLERANCES.

 AVERAGE FORCE                      0.250       TIME AVG. FORCE       0.114    
 LARGEST RESIDUAL FORCE             0.127       AT NODE         13   DOF  3
 LARGEST INCREMENT OF DISP.        -0.299       AT NODE         17   DOF  3
 LARGEST CORRECTION TO DISP.        1.503E-02   AT NODE         15   DOF  3
          FORCE     EQUILIBRIUM NOT ACHIEVED WITHIN TOLERANCE.

 AVERAGE MOMENT                     0.161       TIME AVG. MOMENT      7.562E-02
 LARGEST RESIDUAL MOMENT           -1.348E-15   AT NODE         10   DOF  4
 LARGEST INCREMENT OF ROTATION      0.548       AT NODE         10   DOF  4
 LARGEST CORRECTION TO ROTATION     2.594E-02   AT NODE         16   DOF  4
          THE MOMENT    EQUILIBRIUM EQUATIONS HAVE CONVERGED

  NUMBER OF EQUATIONS =        78     NUMBER OF RHS =    1
  NUMBER OF FLOATING PT. OPERATIONS =  1.77E+05

     CHECK POINT   START OF SOLVER    

     CHECK POINT  END OF SOLVER       

       ELAPSED USER TIME (SEC)      =   0.0000    
       ELAPSED SYSTEM TIME (SEC)    =   0.0000    
       ELAPSED TOTAL CPU TIME (SEC) =   0.0000    
       ELAPSED WALLCLOCK TIME (SEC) =          0

               CONVERGENCE CHECKS FOR EQUILIBRIUM ITERATION     4

   MAX. PENETRATION ERROR 441.241E-06   AT NODE 8 OF CONTACT PAIR 
   (TOPSURFCUBE,BOTSURFTABLE)
   MAX. CONTACT FORCE ERROR 41.9985E-03  AT NODE 8 OF CONTACT PAIR 
   (TOPSURFCUBE,BOTSURFTABLE)
          THE CONTACT CONSTRAINTS HAVE CONVERGED.

 AVERAGE FORCE                      0.245       TIME AVG. FORCE       0.114    
 LARGEST RESIDUAL FORCE            -4.592E-02   AT NODE         13   DOF  3
 LARGEST INCREMENT OF DISP.        -0.304       AT NODE          9   DOF  3
 LARGEST CORRECTION TO DISP.       -5.639E-03   AT NODE          9   DOF  3
          FORCE     EQUILIBRIUM NOT ACHIEVED WITHIN TOLERANCE.

 AVERAGE MOMENT                     0.162       TIME AVG. MOMENT      7.577E-02
 LARGEST RESIDUAL MOMENT            2.276E-15   AT NODE         13   DOF  5
 LARGEST INCREMENT OF ROTATION      0.558       AT NODE         10   DOF  4
 LARGEST CORRECTION TO ROTATION    -9.755E-03   AT NODE         16   DOF  4
          THE MOMENT    EQUILIBRIUM EQUATIONS HAVE CONVERGED

  NUMBER OF EQUATIONS =        78     NUMBER OF RHS =    1
  NUMBER OF FLOATING PT. OPERATIONS =  1.77E+05

     CHECK POINT   START OF SOLVER    

     CHECK POINT  END OF SOLVER       

       ELAPSED USER TIME (SEC)      =   0.0000    
       ELAPSED SYSTEM TIME (SEC)    =   0.0000    
       ELAPSED TOTAL CPU TIME (SEC) =   0.0000    
       ELAPSED WALLCLOCK TIME (SEC) =          0

               CONVERGENCE CHECKS FOR EQUILIBRIUM ITERATION     5

   MAX. PENETRATION ERROR -165.195E-06   AT NODE 8 OF CONTACT PAIR 
   (TOPSURFCUBE,BOTSURFTABLE)
   MAX. CONTACT FORCE ERROR -15.7237E-03  AT NODE 8 OF CONTACT PAIR 
   (TOPSURFCUBE,BOTSURFTABLE)
          THE CONTACT CONSTRAINTS HAVE CONVERGED.

 AVERAGE FORCE                      0.247       TIME AVG. FORCE       0.114    
 LARGEST RESIDUAL FORCE             1.731E-02   AT NODE         13   DOF  3
 LARGEST INCREMENT OF DISP.        -0.302       AT NODE          9   DOF  3
 LARGEST CORRECTION TO DISP.        2.096E-03   AT NODE         15   DOF  3
          FORCE     EQUILIBRIUM NOT ACHIEVED WITHIN TOLERANCE.

 AVERAGE MOMENT                     0.161       TIME AVG. MOMENT      7.571E-02
 LARGEST RESIDUAL MOMENT            1.085E-15   AT NODE         16   DOF  4
 LARGEST INCREMENT OF ROTATION      0.554       AT NODE         14   DOF  5
 LARGEST CORRECTION TO ROTATION    -3.622E-03   AT NODE         10   DOF  4
          THE MOMENT    EQUILIBRIUM EQUATIONS HAVE CONVERGED

  NUMBER OF EQUATIONS =        78     NUMBER OF RHS =    1
  NUMBER OF FLOATING PT. OPERATIONS =  1.77E+05

     CHECK POINT   START OF SOLVER    

     CHECK POINT  END OF SOLVER       

       ELAPSED USER TIME (SEC)      =   0.0000    
       ELAPSED SYSTEM TIME (SEC)    =   0.0000    
       ELAPSED TOTAL CPU TIME (SEC) =   0.0000    
       ELAPSED WALLCLOCK TIME (SEC) =          0

               CONVERGENCE CHECKS FOR EQUILIBRIUM ITERATION     6

   MAX. PENETRATION ERROR 55.2987E-06  AT NODE 5 OF CONTACT PAIR 
   (TOPSURFCUBE,BOTSURFTABLE)
   MAX. CONTACT FORCE ERROR 5.84830E-03 AT NODE 6 OF CONTACT PAIR 
   (TOPSURFCUBE,BOTSURFTABLE)
          THE CONTACT CONSTRAINTS HAVE CONVERGED.

 AVERAGE FORCE                      0.246       TIME AVG. FORCE       0.114    
 LARGEST RESIDUAL FORCE            -6.423E-03   AT NODE         13   DOF  3
 LARGEST INCREMENT OF DISP.        -0.303       AT NODE         17   DOF  3
 LARGEST CORRECTION TO DISP.       -7.816E-04   AT NODE         15   DOF  3
          FORCE     EQUILIBRIUM NOT ACHIEVED WITHIN TOLERANCE.

 AVERAGE MOMENT                     0.161       TIME AVG. MOMENT      7.573E-02
 LARGEST RESIDUAL MOMENT            1.410E-15   AT NODE         10   DOF  4
 LARGEST INCREMENT OF ROTATION     -0.555       AT NODE         16   DOF  4
 LARGEST CORRECTION TO ROTATION    -1.351E-03   AT NODE         16   DOF  4
          THE MOMENT    EQUILIBRIUM EQUATIONS HAVE CONVERGED

  NUMBER OF EQUATIONS =        78     NUMBER OF RHS =    1
  NUMBER OF FLOATING PT. OPERATIONS =  1.91E+05

     CHECK POINT   START OF SOLVER    

     CHECK POINT  END OF SOLVER       

       ELAPSED USER TIME (SEC)      =   0.0000    
       ELAPSED SYSTEM TIME (SEC)    =   0.0000    
       ELAPSED TOTAL CPU TIME (SEC) =   0.0000    
       ELAPSED WALLCLOCK TIME (SEC) =          0

               CONVERGENCE CHECKS FOR EQUILIBRIUM ITERATION     7

   MAX. PENETRATION ERROR -20.6182E-06  AT NODE 5 OF CONTACT PAIR 
   (TOPSURFCUBE,BOTSURFTABLE)
   MAX. CONTACT FORCE ERROR -2.18054E-03 AT NODE 5 OF CONTACT PAIR 
   (TOPSURFCUBE,BOTSURFTABLE)
          THE CONTACT CONSTRAINTS HAVE CONVERGED.

 AVERAGE FORCE                      0.247       TIME AVG. FORCE       0.114    
 LARGEST RESIDUAL FORCE             2.397E-03   AT NODE         13   DOF  3
 LARGEST INCREMENT OF DISP.        -0.303       AT NODE         17   DOF  3
 LARGEST CORRECTION TO DISP.        2.911E-04   AT NODE          9   DOF  3
          FORCE     EQUILIBRIUM NOT ACHIEVED WITHIN TOLERANCE.

 AVERAGE MOMENT                     0.161       TIME AVG. MOMENT      7.573E-02
 LARGEST RESIDUAL MOMENT           -1.305E-15   AT NODE         13   DOF  4
 LARGEST INCREMENT OF ROTATION     -0.555       AT NODE         16   DOF  4
 LARGEST CORRECTION TO ROTATION    -5.033E-04   AT NODE         10   DOF  4
          THE MOMENT    EQUILIBRIUM EQUATIONS HAVE CONVERGED

  NUMBER OF EQUATIONS =        78     NUMBER OF RHS =    1
  NUMBER OF FLOATING PT. OPERATIONS =  1.91E+05

     CHECK POINT   START OF SOLVER    

     CHECK POINT  END OF SOLVER       

       ELAPSED USER TIME (SEC)      =   0.0000    
       ELAPSED SYSTEM TIME (SEC)    =   0.0000    
       ELAPSED TOTAL CPU TIME (SEC) =   0.0000    
       ELAPSED WALLCLOCK TIME (SEC) =          0

               CONVERGENCE CHECKS FOR EQUILIBRIUM ITERATION     8

   MAX. PENETRATION ERROR 8.53390E-06 AT NODE 5 OF CONTACT PAIR 
   (TOPSURFCUBE,BOTSURFTABLE)
   MAX. CONTACT FORCE ERROR 812.279E-06   AT NODE 5 OF CONTACT PAIR 
   (TOPSURFCUBE,BOTSURFTABLE)
          THE CONTACT CONSTRAINTS HAVE CONVERGED.

 AVERAGE FORCE                      0.255       TIME AVG. FORCE       0.115    
 LARGEST RESIDUAL FORCE            -8.927E-04   AT NODE         13   DOF  3
 LARGEST INCREMENT OF DISP.        -0.303       AT NODE          9   DOF  3
 LARGEST CORRECTION TO DISP.       -1.085E-04   AT NODE          9   DOF  3
          FORCE     EQUILIBRIUM NOT ACHIEVED WITHIN TOLERANCE.

 AVERAGE MOMENT                     0.161       TIME AVG. MOMENT      7.573E-02
 LARGEST RESIDUAL MOMENT            1.396E-15   AT NODE         10   DOF  4
 LARGEST INCREMENT OF ROTATION      0.555       AT NODE         10   DOF  4
 LARGEST CORRECTION TO ROTATION     1.876E-04   AT NODE         10   DOF  4
          THE MOMENT    EQUILIBRIUM EQUATIONS HAVE CONVERGED

  NUMBER OF EQUATIONS =        78     NUMBER OF RHS =    1
  NUMBER OF FLOATING PT. OPERATIONS =  1.77E+05

     CHECK POINT   START OF SOLVER    

     CHECK POINT  END OF SOLVER       

       ELAPSED USER TIME (SEC)      =   0.0000    
       ELAPSED SYSTEM TIME (SEC)    =   0.0000    
       ELAPSED TOTAL CPU TIME (SEC) =   0.0000    
       ELAPSED WALLCLOCK TIME (SEC) =          0

               CONVERGENCE CHECKS FOR EQUILIBRIUM ITERATION     9

   MAX. PENETRATION ERROR -2.86205E-06 AT NODE 5 OF CONTACT PAIR 
   (TOPSURFCUBE,BOTSURFTABLE)
   MAX. CONTACT FORCE ERROR -302.686E-06   AT NODE 6 OF CONTACT PAIR 
   (TOPSURFCUBE,BOTSURFTABLE)
          THE CONTACT CONSTRAINTS HAVE CONVERGED.

 AVERAGE FORCE                      0.255       TIME AVG. FORCE       0.115    
 LARGEST RESIDUAL FORCE             3.327E-04   AT NODE         13   DOF  3
 LARGEST INCREMENT OF DISP.        -0.303       AT NODE          9   DOF  3
 LARGEST CORRECTION TO DISP.        4.042E-05   AT NODE         11   DOF  3
          THE FORCE     EQUILIBRIUM EQUATIONS HAVE CONVERGED

 AVERAGE MOMENT                     0.161       TIME AVG. MOMENT      7.573E-02
 LARGEST RESIDUAL MOMENT           -5.274E-16   AT NODE         16   DOF  5
 LARGEST INCREMENT OF ROTATION     -0.555       AT NODE         12   DOF  5
 LARGEST CORRECTION TO ROTATION    -6.988E-05   AT NODE         10   DOF  4
          THE MOMENT    EQUILIBRIUM EQUATIONS HAVE CONVERGED

 ITERATION SUMMARY FOR THE INCREMENT:   9 TOTAL ITERATIONS, OF WHICH
   0 ARE SEVERE DISCONTINUITY ITERATIONS AND  9 ARE EQUILIBRIUM ITERATIONS.

 TIME INCREMENT COMPLETED  0.338    ,  FRACTION OF STEP COMPLETED  0.913    
 STEP TIME COMPLETED       0.913    ,  TOTAL TIME COMPLETED        0.913    


  INCREMENT     6 STARTS. ATTEMPT NUMBER  1, TIME INCREMENT  8.750E-02

  NUMBER OF EQUATIONS =        78     NUMBER OF RHS =    1
  NUMBER OF FLOATING PT. OPERATIONS =  1.77E+05

     CHECK POINT   START OF SOLVER    

     CHECK POINT  END OF SOLVER       

       ELAPSED USER TIME (SEC)      =   0.0000    
       ELAPSED SYSTEM TIME (SEC)    =   0.0000    
       ELAPSED TOTAL CPU TIME (SEC) =   0.0000    
       ELAPSED WALLCLOCK TIME (SEC) =          0

               CONVERGENCE CHECKS FOR EQUILIBRIUM ITERATION     1

   MAX. PENETRATION ERROR -1.82602E-03 AT NODE 8 OF CONTACT PAIR 
   (TOPSURFCUBE,BOTSURFTABLE)
   MAX. CONTACT FORCE ERROR -173.806E-03   AT NODE 8 OF CONTACT PAIR 
   (TOPSURFCUBE,BOTSURFTABLE)
          PENETRATION ERROR TOO LARGE COMPARED TO DISPLACEMENT INCREMENT.

 AVERAGE FORCE                      0.277       TIME AVG. FORCE       0.142    
 LARGEST RESIDUAL FORCE             0.261       AT NODE         13   DOF  3
 LARGEST INCREMENT OF DISP.        -5.673E-02   AT NODE         11   DOF  3
 LARGEST CORRECTION TO DISP.        2.178E-02   AT NODE          9   DOF  3
          FORCE     EQUILIBRIUM NOT ACHIEVED WITHIN TOLERANCE.

 AVERAGE MOMENT                     0.172       TIME AVG. MOMENT      9.183E-02
 LARGEST RESIDUAL MOMENT           -1.665E-15   AT NODE         16   DOF  5
 LARGEST INCREMENT OF ROTATION      0.106       AT NODE         10   DOF  4
 LARGEST CORRECTION TO ROTATION     3.831E-02   AT NODE         12   DOF  5
          THE MOMENT    EQUILIBRIUM RESPONSE WAS LINEAR IN THIS INCREMENT

  NUMBER OF EQUATIONS =        78     NUMBER OF RHS =    1
  NUMBER OF FLOATING PT. OPERATIONS =  1.77E+05

     CHECK POINT   START OF SOLVER    

     CHECK POINT  END OF SOLVER       

       ELAPSED USER TIME (SEC)      =   0.0000    
       ELAPSED SYSTEM TIME (SEC)    =   0.0000    
       ELAPSED TOTAL CPU TIME (SEC) =   0.0000    
       ELAPSED WALLCLOCK TIME (SEC) =          0

               CONVERGENCE CHECKS FOR EQUILIBRIUM ITERATION     2

   MAX. PENETRATION ERROR 855.204E-06   AT NODE 8 OF CONTACT PAIR 
   (TOPSURFCUBE,BOTSURFTABLE)
   MAX. CONTACT FORCE ERROR 81.4005E-03  AT NODE 7 OF CONTACT PAIR 
   (TOPSURFCUBE,BOTSURFTABLE)
          PENETRATION ERROR TOO LARGE COMPARED TO DISPLACEMENT INCREMENT.

 AVERAGE FORCE                      0.266       TIME AVG. FORCE       0.141    
 LARGEST RESIDUAL FORCE            -0.118       AT NODE         13   DOF  3
 LARGEST INCREMENT OF DISP.        -6.737E-02   AT NODE         15   DOF  3
 LARGEST CORRECTION TO DISP.       -1.065E-02   AT NODE         15   DOF  3
          FORCE     EQUILIBRIUM NOT ACHIEVED WITHIN TOLERANCE.

 AVERAGE MOMENT                     0.174       TIME AVG. MOMENT      9.208E-02
 LARGEST RESIDUAL MOMENT            1.110E-15   AT NODE         10   DOF  5
 LARGEST INCREMENT OF ROTATION     -0.124       AT NODE         16   DOF  4
 LARGEST CORRECTION TO ROTATION    -1.866E-02   AT NODE         12   DOF  5
          THE MOMENT    EQUILIBRIUM EQUATIONS HAVE CONVERGED

  NUMBER OF EQUATIONS =        78     NUMBER OF RHS =    1
  NUMBER OF FLOATING PT. OPERATIONS =  1.77E+05

     CHECK POINT   START OF SOLVER    

     CHECK POINT  END OF SOLVER       

       ELAPSED USER TIME (SEC)      =   0.0000    
       ELAPSED SYSTEM TIME (SEC)    =   0.0000    
       ELAPSED TOTAL CPU TIME (SEC) =   0.0000    
       ELAPSED WALLCLOCK TIME (SEC) =          0

               CONVERGENCE CHECKS FOR EQUILIBRIUM ITERATION     3

   MAX. PENETRATION ERROR -419.845E-06   AT NODE 8 OF CONTACT PAIR 
   (TOPSURFCUBE,BOTSURFTABLE)
   MAX. CONTACT FORCE ERROR -39.9620E-03  AT NODE 7 OF CONTACT PAIR 
   (TOPSURFCUBE,BOTSURFTABLE)
          PENETRATION ERROR TOO LARGE COMPARED TO DISPLACEMENT INCREMENT.

 AVERAGE FORCE                      0.271       TIME AVG. FORCE       0.141    
 LARGEST RESIDUAL FORCE             5.875E-02   AT NODE         13   DOF  3
 LARGEST INCREMENT OF DISP.        -6.225E-02   AT NODE         11   DOF  3
 LARGEST CORRECTION TO DISP.        5.122E-03   AT NODE         17   DOF  3
          FORCE     EQUILIBRIUM NOT ACHIEVED WITHIN TOLERANCE.

 AVERAGE MOMENT                     0.173       TIME AVG. MOMENT      9.196E-02
 LARGEST RESIDUAL MOMENT           -1.694E-15   AT NODE         10   DOF  4
 LARGEST INCREMENT OF ROTATION      0.115       AT NODE         14   DOF  5
 LARGEST CORRECTION TO ROTATION     8.968E-03   AT NODE         16   DOF  4
          THE MOMENT    EQUILIBRIUM EQUATIONS HAVE CONVERGED

  NUMBER OF EQUATIONS =        78     NUMBER OF RHS =    1
  NUMBER OF FLOATING PT. OPERATIONS =  1.77E+05

     CHECK POINT   START OF SOLVER    

     CHECK POINT  END OF SOLVER       

       ELAPSED USER TIME (SEC)      =   0.0000    
       ELAPSED SYSTEM TIME (SEC)    =   0.0000    
       ELAPSED TOTAL CPU TIME (SEC) =   0.0000    
       ELAPSED WALLCLOCK TIME (SEC) =          0

               CONVERGENCE CHECKS FOR EQUILIBRIUM ITERATION     4

   MAX. PENETRATION ERROR 201.474E-06   AT NODE 8 OF CONTACT PAIR 
   (TOPSURFCUBE,BOTSURFTABLE)
   MAX. CONTACT FORCE ERROR 19.1768E-03  AT NODE 8 OF CONTACT PAIR 
   (TOPSURFCUBE,BOTSURFTABLE)
          THE CONTACT CONSTRAINTS HAVE CONVERGED.

 AVERAGE FORCE                      0.269       TIME AVG. FORCE       0.141    
 LARGEST RESIDUAL FORCE            -2.803E-02   AT NODE         13   DOF  3
 LARGEST INCREMENT OF DISP.        -6.473E-02   AT NODE         11   DOF  3
 LARGEST CORRECTION TO DISP.       -2.482E-03   AT NODE         11   DOF  3
          FORCE     EQUILIBRIUM NOT ACHIEVED WITHIN TOLERANCE.

 AVERAGE MOMENT                     0.173       TIME AVG. MOMENT      9.202E-02
 LARGEST RESIDUAL MOMENT            2.248E-15   AT NODE         13   DOF  4
 LARGEST INCREMENT OF ROTATION     -0.120       AT NODE         16   DOF  4
 LARGEST CORRECTION TO ROTATION    -4.348E-03   AT NODE         16   DOF  4
          THE MOMENT    EQUILIBRIUM EQUATIONS HAVE CONVERGED

  NUMBER OF EQUATIONS =        78     NUMBER OF RHS =    1
  NUMBER OF FLOATING PT. OPERATIONS =  1.77E+05

     CHECK POINT   START OF SOLVER    

     CHECK POINT  END OF SOLVER       

       ELAPSED USER TIME (SEC)      =   0.0000    
       ELAPSED SYSTEM TIME (SEC)    =   0.0000    
       ELAPSED TOTAL CPU TIME (SEC) =   0.0000    
       ELAPSED WALLCLOCK TIME (SEC) =          0

               CONVERGENCE CHECKS FOR EQUILIBRIUM ITERATION     5

   MAX. PENETRATION ERROR -97.7518E-06  AT NODE 8 OF CONTACT PAIR 
   (TOPSURFCUBE,BOTSURFTABLE)
   MAX. CONTACT FORCE ERROR -9.30427E-03 AT NODE 8 OF CONTACT PAIR 
   (TOPSURFCUBE,BOTSURFTABLE)
          THE CONTACT CONSTRAINTS HAVE CONVERGED.

 AVERAGE FORCE                      0.270       TIME AVG. FORCE       0.141    
 LARGEST RESIDUAL FORCE             1.364E-02   AT NODE         13   DOF  3
 LARGEST INCREMENT OF DISP.        -6.353E-02   AT NODE         11   DOF  3
 LARGEST CORRECTION TO DISP.        1.199E-03   AT NODE         15   DOF  3
          FORCE     EQUILIBRIUM NOT ACHIEVED WITHIN TOLERANCE.

 AVERAGE MOMENT                     0.173       TIME AVG. MOMENT      9.199E-02
 LARGEST RESIDUAL MOMENT           -1.971E-15   AT NODE         13   DOF  4
 LARGEST INCREMENT OF ROTATION      0.118       AT NODE         10   DOF  4
 LARGEST CORRECTION TO ROTATION     2.099E-03   AT NODE         16   DOF  4
          THE MOMENT    EQUILIBRIUM EQUATIONS HAVE CONVERGED

  NUMBER OF EQUATIONS =        78     NUMBER OF RHS =    1
  NUMBER OF FLOATING PT. OPERATIONS =  1.77E+05

     CHECK POINT   START OF SOLVER    

     CHECK POINT  END OF SOLVER       

       ELAPSED USER TIME (SEC)      =   0.0000    
       ELAPSED SYSTEM TIME (SEC)    =   0.0000    
       ELAPSED TOTAL CPU TIME (SEC) =   0.0000    
       ELAPSED WALLCLOCK TIME (SEC) =          0

               CONVERGENCE CHECKS FOR EQUILIBRIUM ITERATION     6

   MAX. PENETRATION ERROR 47.1759E-06  AT NODE 8 OF CONTACT PAIR 
   (TOPSURFCUBE,BOTSURFTABLE)
   MAX. CONTACT FORCE ERROR 4.49033E-03 AT NODE 8 OF CONTACT PAIR 
   (TOPSURFCUBE,BOTSURFTABLE)
          THE CONTACT CONSTRAINTS HAVE CONVERGED.

 AVERAGE FORCE                      0.269       TIME AVG. FORCE       0.141    
 LARGEST RESIDUAL FORCE            -6.573E-03   AT NODE         13   DOF  3
 LARGEST INCREMENT OF DISP.        -6.411E-02   AT NODE         15   DOF  3
 LARGEST CORRECTION TO DISP.       -5.798E-04   AT NODE         15   DOF  3
          FORCE     EQUILIBRIUM NOT ACHIEVED WITHIN TOLERANCE.

 AVERAGE MOMENT                     0.173       TIME AVG. MOMENT      9.200E-02
 LARGEST RESIDUAL MOMENT           -1.577E-15   AT NODE         14   DOF  5
 LARGEST INCREMENT OF ROTATION     -0.119       AT NODE         16   DOF  4
 LARGEST CORRECTION TO ROTATION    -1.015E-03   AT NODE         16   DOF  4
          THE MOMENT    EQUILIBRIUM EQUATIONS HAVE CONVERGED

  NUMBER OF EQUATIONS =        78     NUMBER OF RHS =    1
  NUMBER OF FLOATING PT. OPERATIONS =  1.77E+05

     CHECK POINT   START OF SOLVER    

     CHECK POINT  END OF SOLVER       

       ELAPSED USER TIME (SEC)      =   0.0000    
       ELAPSED SYSTEM TIME (SEC)    =   0.0000    
       ELAPSED TOTAL CPU TIME (SEC) =   0.0000    
       ELAPSED WALLCLOCK TIME (SEC) =          0

               CONVERGENCE CHECKS FOR EQUILIBRIUM ITERATION     7

   MAX. PENETRATION ERROR -22.8262E-06  AT NODE 8 OF CONTACT PAIR 
   (TOPSURFCUBE,BOTSURFTABLE)
   MAX. CONTACT FORCE ERROR -2.17265E-03 AT NODE 8 OF CONTACT PAIR 
   (TOPSURFCUBE,BOTSURFTABLE)
          THE CONTACT CONSTRAINTS HAVE CONVERGED.

 AVERAGE FORCE                      0.279       TIME AVG. FORCE       0.143    
 LARGEST RESIDUAL FORCE             3.183E-03   AT NODE         13   DOF  3
 LARGEST INCREMENT OF DISP.        -6.383E-02   AT NODE         11   DOF  3
 LARGEST CORRECTION TO DISP.        2.802E-04   AT NODE         15   DOF  3
          FORCE     EQUILIBRIUM NOT ACHIEVED WITHIN TOLERANCE.

 AVERAGE MOMENT                     0.173       TIME AVG. MOMENT      9.200E-02
 LARGEST RESIDUAL MOMENT            2.104E-15   AT NODE         14   DOF  5
 LARGEST INCREMENT OF ROTATION      0.118       AT NODE         10   DOF  4
 LARGEST CORRECTION TO ROTATION     4.908E-04   AT NODE         12   DOF  5
          THE MOMENT    EQUILIBRIUM EQUATIONS HAVE CONVERGED

  NUMBER OF EQUATIONS =        78     NUMBER OF RHS =    1
  NUMBER OF FLOATING PT. OPERATIONS =  1.77E+05

     CHECK POINT   START OF SOLVER    

     CHECK POINT  END OF SOLVER       

       ELAPSED USER TIME (SEC)      =   0.0000    
       ELAPSED SYSTEM TIME (SEC)    =   0.0000    
       ELAPSED TOTAL CPU TIME (SEC) =   0.0000    
       ELAPSED WALLCLOCK TIME (SEC) =          0

               CONVERGENCE CHECKS FOR EQUILIBRIUM ITERATION     8

   MAX. PENETRATION ERROR 11.0308E-06  AT NODE 8 OF CONTACT PAIR 
   (TOPSURFCUBE,BOTSURFTABLE)
   MAX. CONTACT FORCE ERROR 1.04994E-03 AT NODE 8 OF CONTACT PAIR 
   (TOPSURFCUBE,BOTSURFTABLE)
          THE CONTACT CONSTRAINTS HAVE CONVERGED.

 AVERAGE FORCE                      0.278       TIME AVG. FORCE       0.143    
 LARGEST RESIDUAL FORCE            -1.537E-03   AT NODE         13   DOF  3
 LARGEST INCREMENT OF DISP.        -6.397E-02   AT NODE         15   DOF  3
 LARGEST CORRECTION TO DISP.       -1.355E-04   AT NODE         15   DOF  3
          FORCE     EQUILIBRIUM NOT ACHIEVED WITHIN TOLERANCE.

 AVERAGE MOMENT                     0.173       TIME AVG. MOMENT      9.200E-02
 LARGEST RESIDUAL MOMENT           -1.332E-15   AT NODE         13   DOF  5
 LARGEST INCREMENT OF ROTATION      0.118       AT NODE         10   DOF  4
 LARGEST CORRECTION TO ROTATION    -2.373E-04   AT NODE         12   DOF  5
          THE MOMENT    EQUILIBRIUM EQUATIONS HAVE CONVERGED

  NUMBER OF EQUATIONS =        78     NUMBER OF RHS =    1
  NUMBER OF FLOATING PT. OPERATIONS =  1.77E+05

     CHECK POINT   START OF SOLVER    

     CHECK POINT  END OF SOLVER       

       ELAPSED USER TIME (SEC)      =   0.0000    
       ELAPSED SYSTEM TIME (SEC)    =   0.0000    
       ELAPSED TOTAL CPU TIME (SEC) =   0.0000    
       ELAPSED WALLCLOCK TIME (SEC) =          0

               CONVERGENCE CHECKS FOR EQUILIBRIUM ITERATION     9

   MAX. PENETRATION ERROR -5.33383E-06 AT NODE 8 OF CONTACT PAIR 
   (TOPSURFCUBE,BOTSURFTABLE)
   MAX. CONTACT FORCE ERROR -507.688E-06   AT NODE 8 OF CONTACT PAIR 
   (TOPSURFCUBE,BOTSURFTABLE)
          THE CONTACT CONSTRAINTS HAVE CONVERGED.

 AVERAGE FORCE                      0.278       TIME AVG. FORCE       0.143    
 LARGEST RESIDUAL FORCE             7.436E-04   AT NODE         13   DOF  3
 LARGEST INCREMENT OF DISP.        -6.390E-02   AT NODE         11   DOF  3
 LARGEST CORRECTION TO DISP.        6.550E-05   AT NODE         15   DOF  3
          FORCE     EQUILIBRIUM NOT ACHIEVED WITHIN TOLERANCE.

 AVERAGE MOMENT                     0.173       TIME AVG. MOMENT      9.200E-02
 LARGEST RESIDUAL MOMENT            1.138E-15   AT NODE         16   DOF  5
 LARGEST INCREMENT OF ROTATION      0.118       AT NODE         10   DOF  4
 LARGEST CORRECTION TO ROTATION     1.147E-04   AT NODE         12   DOF  5
          THE MOMENT    EQUILIBRIUM EQUATIONS HAVE CONVERGED

  NUMBER OF EQUATIONS =        78     NUMBER OF RHS =    1
  NUMBER OF FLOATING PT. OPERATIONS =  1.77E+05

     CHECK POINT   START OF SOLVER    

     CHECK POINT  END OF SOLVER       

       ELAPSED USER TIME (SEC)      =   0.0000    
       ELAPSED SYSTEM TIME (SEC)    =   0.0000    
       ELAPSED TOTAL CPU TIME (SEC) =   0.0000    
       ELAPSED WALLCLOCK TIME (SEC) =          0

               CONVERGENCE CHECKS FOR EQUILIBRIUM ITERATION    10

   MAX. PENETRATION ERROR 2.57838E-06 AT NODE 8 OF CONTACT PAIR 
   (TOPSURFCUBE,BOTSURFTABLE)
   MAX. CONTACT FORCE ERROR 245.417E-06   AT NODE 8 OF CONTACT PAIR 
   (TOPSURFCUBE,BOTSURFTABLE)
          THE CONTACT CONSTRAINTS HAVE CONVERGED.

 AVERAGE FORCE                      0.278       TIME AVG. FORCE       0.143    
 LARGEST RESIDUAL FORCE            -3.594E-04   AT NODE         13   DOF  3
 LARGEST INCREMENT OF DISP.        -6.393E-02   AT NODE         11   DOF  3
 LARGEST CORRECTION TO DISP.       -3.167E-05   AT NODE         15   DOF  3
          THE FORCE     EQUILIBRIUM EQUATIONS HAVE CONVERGED BASED ON ALTERNATIVE
          RESIDUAL CRITERION

 AVERAGE MOMENT                     0.173       TIME AVG. MOMENT      9.200E-02
 LARGEST RESIDUAL MOMENT           -1.305E-15   AT NODE         16   DOF  5
 LARGEST INCREMENT OF ROTATION      0.118       AT NODE         10   DOF  4
 LARGEST CORRECTION TO ROTATION    -5.546E-05   AT NODE         16   DOF  4
          THE MOMENT    EQUILIBRIUM EQUATIONS HAVE CONVERGED

 ITERATION SUMMARY FOR THE INCREMENT:  10 TOTAL ITERATIONS, OF WHICH
   0 ARE SEVERE DISCONTINUITY ITERATIONS AND 10 ARE EQUILIBRIUM ITERATIONS.

 TIME INCREMENT COMPLETED  8.750E-02,  FRACTION OF STEP COMPLETED   1.00    
 STEP TIME COMPLETED        1.00    ,  TOTAL TIME COMPLETED         1.00    


          THE ANALYSIS HAS BEEN COMPLETED



     ANALYSIS SUMMARY:
     TOTAL OF          6  INCREMENTS
                       0  CUTBACKS IN AUTOMATIC INCREMENTATION
                      23  ITERATIONS INCLUDING CONTACT ITERATIONS IF PRESENT
                      23  PASSES THROUGH THE EQUATION SOLVER OF WHICH 
                      23  INVOLVE MATRIX DECOMPOSITION, INCLUDING
                       0  DECOMPOSITION(S) OF THE MASS MATRIX
                       1  REORDERING OF EQUATIONS TO MINIMIZE WAVEFRONT
                       0  ADDITIONAL RESIDUAL EVALUATIONS FOR LINE SEARCHES
                       0  ADDITIONAL OPERATOR EVALUATIONS FOR LINE SEARCHES
                       0  WARNING MESSAGES DURING USER INPUT PROCESSING
                       0  WARNING MESSAGES DURING ANALYSIS
                       0  ANALYSIS WARNINGS ARE NUMERICAL PROBLEM MESSAGES
                       0  ANALYSIS WARNINGS ARE NEGATIVE EIGENVALUE MESSAGES
                       0  ERROR MESSAGES



     JOB TIME SUMMARY
       USER TIME (SEC)      =  0.30000    
       SYSTEM TIME (SEC)    =  0.20000    
       TOTAL CPU TIME (SEC) =  0.50000    
       WALLCLOCK TIME (SEC) =          0
